                                  MODFLOW-2000
      U.S. GEOLOGICAL SURVEY MODULAR FINITE-DIFFERENCE GROUND-WATER FLOW MODEL
                           VERSION 1.19.01 03/25/2010


 This model run combines GLOBAL and LIST output into this single file.

 GLOBAL LISTING FILE: tutorial2.list
                         UNIT    2

 OPENING tutorial2.dis
 FILE TYPE:DIS   UNIT   11   STATUS:OLD    
 FORMAT:FORMATTED              ACCESS:SEQUENTIAL          

 OPENING tutorial2.bas
 FILE TYPE:BAS6   UNIT   13   STATUS:OLD    
 FORMAT:FORMATTED              ACCESS:SEQUENTIAL          

 OPENING tutorial2.pcg
 FILE TYPE:PCG   UNIT   27   STATUS:OLD    
 FORMAT:FORMATTED              ACCESS:SEQUENTIAL          

 OPENING tutorial2.wel
 FILE TYPE:WEL   UNIT   20   STATUS:OLD    
 FORMAT:FORMATTED              ACCESS:SEQUENTIAL          

 OPENING tutorial2.oc
 FILE TYPE:OC   UNIT   14   STATUS:OLD    
 FORMAT:FORMATTED              ACCESS:SEQUENTIAL          

 OPENING tutorial2.lpf
 FILE TYPE:LPF   UNIT   15   STATUS:OLD    
 FORMAT:FORMATTED              ACCESS:SEQUENTIAL          

 OPENING tutorial2.hds
 FILE TYPE:DATA(BINARY)   UNIT   51   STATUS:REPLACE
 FORMAT:BINARY                 ACCESS:SEQUENTIAL          

 OPENING tutorial2.ddn
 FILE TYPE:DATA(BINARY)   UNIT   52   STATUS:REPLACE
 FORMAT:BINARY                 ACCESS:SEQUENTIAL          

 OPENING tutorial2.cbc
 FILE TYPE:DATA(BINARY)   UNIT   53   STATUS:REPLACE
 FORMAT:BINARY                 ACCESS:SEQUENTIAL          

 THE FREE FORMAT OPTION HAS BEEN SELECTED

 DISCRETIZATION INPUT DATA READ FROM UNIT   11
 # DIS package for  MODFLOW-2005, generated by Flopy.
    1 LAYERS        50 ROWS        50 COLUMNS
    2 STRESS PERIOD(S) IN SIMULATION
 MODEL TIME UNIT IS DAYS
 MODEL LENGTH UNIT IS METERS
 THE GROUND-WATER TRANSPORT PROCESS IS INACTIVE

 THE OBSERVATION PROCESS IS INACTIVE
 THE SENSITIVITY PROCESS IS INACTIVE
 THE PARAMETER-ESTIMATION PROCESS IS INACTIVE

 MODE: FORWARD

  Confining bed flag for each layer:
   0

      22600  ELEMENTS OF GX ARRAY USED OUT OF      22600
       2500  ELEMENTS OF GZ ARRAY USED OUT OF       2500
       2500  ELEMENTS OF IG ARRAY USED OUT OF       2500

                     DELR =   20.0000    

                     DELC =   20.0000    

 TOP ELEVATION OF LAYER 1 =   10.0000    

   MODEL LAYER BOTTOM EL. =  -50.0000     FOR LAYER   1


 STRESS PERIOD     LENGTH       TIME STEPS     MULTIPLIER FOR DELT    SS FLAG
 ----------------------------------------------------------------------------
        1         1.000000          1                    1.000         SS
        2         100.0000        100                    1.000         TR

 COMBINED STEADY-STATE AND TRANSIENT SIMULATION




 LPF1 -- LAYER PROPERTY FLOW PACKAGE, VERSION 1, 1/11/2000
         INPUT READ FROM UNIT   15
 # LPF package for  MODFLOW-2005, generated by Flopy.
 CELL-BY-CELL FLOWS WILL BE SAVED ON UNIT   53
 HEAD AT CELLS THAT CONVERT TO DRY= -1.00000E+30
 No named parameters

   LAYER FLAGS:
 LAYER       LAYTYP        LAYAVG         CHANI        LAYVKA        LAYWET
 ---------------------------------------------------------------------------
    1             1             0     1.000E+00             0             0

   INTERPRETATION OF LAYER FLAGS:
                        INTERBLOCK     HORIZONTAL    DATA IN
         LAYER TYPE   TRANSMISSIVITY   ANISOTROPY   ARRAY VKA   WETTABILITY
 LAYER      (LAYTYP)      (LAYAVG)       (CHANI)      (LAYVKA)      (LAYWET)
 ---------------------------------------------------------------------------
    1   CONVERTIBLE      HARMONIC     1.000E+00    VERTICAL K  NON-WETTABLE

      10000 ELEMENTS IN X ARRAY ARE USED BY LPF
          6 ELEMENTS IN IX ARRAY ARE USED BY LPF

 PCG2 -- CONJUGATE GRADIENT SOLUTION PACKAGE, VERSION 2.4, 12/29/98
 # PCG package for  MODFLOW-2005, generated by Flopy.
 MAXIMUM OF     50 CALLS OF SOLUTION ROUTINE
 MAXIMUM OF     30 INTERNAL ITERATIONS PER CALL TO SOLUTION ROUTINE
 MATRIX PRECONDITIONING TYPE :    1
       8000 ELEMENTS IN X ARRAY ARE USED BY PCG
      10500 ELEMENTS IN IX ARRAY ARE USED BY PCG
      10000 ELEMENTS IN Z ARRAY ARE USED BY PCG

      18000  ELEMENTS OF X ARRAY USED OUT OF      18000
      10000  ELEMENTS OF Z ARRAY USED OUT OF      10000
      10506  ELEMENTS OF IX ARRAY USED OUT OF      10506
          0  ELEMENTS OF XHS ARRAY USED OUT OF          1



                                    SOLUTION BY THE CONJUGATE-GRADIENT METHOD
                                   -------------------------------------------
                    MAXIMUM NUMBER OF CALLS TO PCG ROUTINE =       50
                        MAXIMUM ITERATIONS PER CALL TO PCG =       30
                               MATRIX PRECONDITIONING TYPE =        1
        RELAXATION FACTOR (ONLY USED WITH PRECOND. TYPE 1) =    0.10000E+01
 PARAMETER OF POLYNOMIAL PRECOND. = 2 (2) OR IS CALCULATED :        0
                         HEAD CHANGE CRITERION FOR CLOSURE =    0.10000E-04
                     RESIDUAL CHANGE CRITERION FOR CLOSURE =    0.10000E-04
            PCG HEAD AND RESIDUAL CHANGE PRINTOUT INTERVAL =      999
     PRINTING FROM SOLVER IS LIMITED(1) OR SUPPRESSED (>1) =        3
                                         DAMPING PARAMETER =    0.10000E+01

 WETTING CAPABILITY IS NOT ACTIVE IN ANY LAYER



              HYD. COND. ALONG ROWS FOR LAYER   1
 READING ON UNIT   15 WITH FORMAT: (50E15.6)           

      VERTICAL HYD. COND. =   1.00000     FOR LAYER   1

         SPECIFIC STORAGE =  1.000000E-04 FOR LAYER   1

           SPECIFIC YIELD =  0.100000     FOR LAYER   1
 
 # BAS6 package for  MODFLOW-2005, generated by Flopy.                           
 THE FREE FORMAT OPTION HAS BEEN SELECTED
    1 LAYERS        50 ROWS        50 COLUMNS
    2 STRESS PERIOD(S) IN SIMULATION

 BAS6 -- BASIC PACKAGE, VERSION 6, 1/11/2000 INPUT READ FROM UNIT   13
          5 ELEMENTS IN IR ARRAY ARE USED BY BAS

 WEL6 -- WELL PACKAGE, VERSION 6, 1/11/2000 INPUT READ FROM UNIT   20
 # WEL package for  MODFLOW-2005, generated by Flopy.
 No named parameters
 MAXIMUM OF      1 ACTIVE WELLS AT ONE TIME
          4 ELEMENTS IN RX ARRAY ARE USED BY WEL

          4  ELEMENTS OF RX ARRAY USED OUT OF          4
          0  ELEMENTS OF RZ ARRAY USED OUT OF          1
          5  ELEMENTS OF IR ARRAY USED OUT OF          5
1
 # BAS6 package for  MODFLOW-2005, generated by Flopy.                           
                                                                                 



                     BOUNDARY ARRAY FOR LAYER   1
 READING ON UNIT   13 WITH FORMAT: (50I10)             

 AQUIFER HEAD WILL BE SET TO -999.99     AT ALL NO-FLOW NODES (IBOUND=0).



                       INITIAL HEAD FOR LAYER   1
 READING ON UNIT   13 WITH FORMAT: (50E15.6)           
 # OC package for  MODFLOW-2005, generated by Flopy.

 OUTPUT CONTROL IS SPECIFIED ONLY AT TIME STEPS FOR WHICH OUTPUT IS DESIRED
 COMPACT CELL-BY-CELL BUDGET FILES WILL BE WRITTEN
 AUXILIARY DATA WILL BE SAVED IN CELL-BY-CELL BUDGET FILES
 HEAD PRINT FORMAT CODE IS   0    DRAWDOWN PRINT FORMAT CODE IS   0
 HEADS WILL BE SAVED ON UNIT   51    DRAWDOWNS WILL BE SAVED ON UNIT   52


     0 Well parameters
1
                            STRESS PERIOD NO.    1, LENGTH =   1.000000    
                            -----------------------------------------------

                              NUMBER OF TIME STEPS =     1

                               MULTIPLIER FOR DELT =     1.000

                            INITIAL TIME STEP SIZE =   1.000000    

 WELL NO.  LAYER   ROW   COL   STRESS RATE         
 --------------------------------------------------
      1      1     25     25       0.000    

      1 WELL
 
 SOLVING FOR HEAD 

 OUTPUT CONTROL FOR STRESS PERIOD    1   TIME STEP   1
    SAVE HEAD FOR ALL LAYERS
    SAVE DRAWDOWN FOR ALL LAYERS
    SAVE BUDGET
    PRINT HEAD FOR ALL LAYERS
    PRINT BUDGET
 UBDSV2 SAVING "   CONSTANT HEAD" ON UNIT  53 AT TIME STEP  1, STRESS PERIOD   1
 UBDSV1 SAVING "FLOW RIGHT FACE " ON UNIT  53 AT TIME STEP  1, STRESS PERIOD   1
 UBDSV1 SAVING "FLOW FRONT FACE " ON UNIT  53 AT TIME STEP  1, STRESS PERIOD   1
1
              HEAD IN LAYER   1 AT END OF TIME STEP   1 IN STRESS PERIOD    1
  ---------------------------------------------------------------------------

            1           2           3           4           5           6           7           8           9          10
           11          12          13          14          15          16          17          18          19          20
           21          22          23          24          25          26          27          28          29          30
           31          32          33          34          35          36          37          38          39          40
           41          42          43          44          45          46          47          48          49          50
 ........................................................................................................................
   1    10.00       9.960       9.902       9.836       9.772       9.700       9.631       9.563       9.478       9.394    
        9.330       9.266       9.201       9.138       9.035       8.911       8.773       8.665       8.608       8.542    
        8.463       8.399       8.336       8.261       8.161       7.964       7.741       7.584       7.430       7.285    
        7.096       6.795       6.409       5.982       5.540       5.070       4.605       4.218       3.713       3.165    
        2.715       2.285       1.807       1.408       1.161      0.9524      0.7868      0.6669      0.4476       0.000    
   2    10.00       9.959       9.906       9.840       9.775       9.711       9.643       9.554       9.461       9.392    
        9.336       9.282       9.227       9.149       9.031       8.902       8.772       8.665       8.607       8.533    
        8.454       8.406       8.355       8.277       8.151       7.958       7.756       7.594       7.438       7.297    
        7.086       6.770       6.366       5.880       5.408       4.954       4.551       4.178       3.664       3.134    
        2.683       2.198       1.763       1.449       1.217       1.037      0.8317      0.6492      0.3621       0.000    
   3    10.00       9.953       9.901       9.842       9.785       9.720       9.633       9.539       9.473       9.412    
        9.349       9.300       9.252       9.176       9.055       8.896       8.755       8.668       8.600       8.525    
        8.461       8.411       8.358       8.256       8.119       7.948       7.773       7.645       7.464       7.278    
        7.014       6.640       6.182       5.712       5.292       4.867       4.472       4.072       3.540       3.049    
        2.661       2.214       1.814       1.526       1.295       1.109      0.8655      0.5802      0.2630       0.000    
   4    10.00       9.953       9.902       9.845       9.781       9.705       9.616       9.544       9.487       9.424    
        9.369       9.327       9.274       9.188       9.071       8.902       8.756       8.674       8.598       8.531    
        8.462       8.401       8.335       8.228       8.094       7.941       7.782       7.626       7.467       7.256    
        6.925       6.434       5.949       5.592       5.239       4.799       4.324       3.855       3.430       3.057    
        2.693       2.277       1.900       1.639       1.379       1.142      0.8410      0.5220      0.2500       0.000    
   5    10.00       9.950       9.899       9.834       9.769       9.699       9.619       9.557       9.498       9.439    
        9.391       9.351       9.280       9.181       9.052       8.899       8.774       8.685       8.611       8.522    
        8.441       8.375       8.295       8.190       8.070       7.915       7.757       7.613       7.451       7.198    
        6.728       6.184       5.795       5.514       5.164       4.685       4.194       3.767       3.446       3.108    
        2.749       2.365       1.990       1.746       1.467       1.125      0.7657      0.4656      0.2342       0.000    
   6    10.00       9.943       9.882       9.829       9.769       9.693       9.625       9.572       9.510       9.454    
        9.409       9.360       9.272       9.161       9.049       8.920       8.795       8.693       8.596       8.495    
        8.413       8.337       8.268       8.173       8.021       7.870       7.741       7.595       7.372       6.994    
        6.480       5.989       5.665       5.419       5.102       4.627       4.136       3.771       3.499       3.191    
        2.860       2.520       2.135       1.808       1.438       1.061      0.6765      0.4019      0.2213       0.000    
   7    10.00       9.932       9.873       9.823       9.762       9.698       9.638       9.587       9.530       9.476    
        9.420       9.347       9.251       9.146       9.040       8.940       8.810       8.674       8.562       8.463    
        8.378       8.305       8.244       8.130       7.975       7.845       7.715       7.524       7.176       6.699    
        6.206       5.806       5.581       5.359       4.990       4.547       4.213       3.855       3.554       3.350    
        3.034       2.667       2.214       1.748       1.334      0.9219      0.5831      0.4050      0.2085       0.000    
   8    10.00       9.931       9.878       9.822       9.760       9.704       9.651       9.600       9.548       9.496    
        9.423       9.330       9.235       9.136       9.039       8.927       8.768       8.625       8.535       8.440    
        8.346       8.282       8.197       8.077       7.944       7.808       7.595       7.302       6.875       6.457    
        6.080       5.760       5.548       5.292       4.900       4.529       4.227       3.961       3.722       3.485    
        3.175       2.713       2.156       1.660       1.228      0.8635      0.6175      0.3969      0.1902       0.000    
   9    10.00       9.942       9.877       9.816       9.770       9.724       9.671       9.617       9.559       9.503    
        9.420       9.315       9.213       9.115       9.012       8.881       8.729       8.598       8.501       8.405    
        8.322       8.242       8.129       8.017       7.897       7.736       7.438       7.048       6.650       6.342    
        6.027       5.751       5.515       5.192       4.825       4.510       4.277       4.075       3.860       3.598    
        3.225       2.720       2.152       1.658       1.238      0.8830      0.6233      0.4005      0.2048       0.000    
  10    10.00       9.940       9.872       9.821       9.779       9.734       9.686       9.640       9.574       9.492    
        9.393       9.283       9.187       9.095       8.991       8.833       8.673       8.561       8.471       8.381    
        8.303       8.198       8.074       7.951       7.816       7.596       7.228       6.820       6.472       6.223    
        6.012       5.766       5.484       5.152       4.800       4.526       4.340       4.163       3.929       3.628    
        3.201       2.678       2.158       1.736       1.341      0.9723      0.6430      0.4254      0.2286       0.000    
  11    10.00       9.927       9.872       9.831       9.789       9.751       9.707       9.643       9.553       9.463    
        9.364       9.257       9.169       9.061       8.921       8.772       8.642       8.542       8.460       8.370    
        8.259       8.129       7.971       7.834       7.625       7.327       7.010       6.695       6.389       6.189    
        6.021       5.719       5.401       5.124       4.845       4.622       4.423       4.195       3.906       3.544    
        3.143       2.737       2.236       1.819       1.443       1.076      0.7227      0.4178      0.1752       0.000    
  12    10.00       9.930       9.879       9.835       9.800       9.760       9.710       9.622       9.518       9.432    
        9.341       9.232       9.125       8.999       8.878       8.743       8.618       8.531       8.444       8.327    
        8.157       7.973       7.794       7.612       7.345       7.116       6.911       6.608       6.340       6.163    
        5.966       5.695       5.416       5.150       4.934       4.719       4.462       4.184       3.833       3.468    
        3.127       2.759       2.275       1.864       1.509       1.125      0.7607      0.3943      0.1308       0.000    
  13    10.00       9.943       9.895       9.849       9.807       9.760       9.682       9.581       9.485       9.397    
        9.296       9.191       9.083       8.954       8.823       8.697       8.607       8.506       8.396       8.187    
        7.946       7.757       7.565       7.335       7.128       6.997       6.774       6.507       6.336       6.162    
        5.916       5.663       5.434       5.215       5.020       4.817       4.507       4.127       3.786       3.440    
        3.113       2.731       2.212       1.830       1.525       1.116      0.6997      0.3407      0.1043       0.000    
  14    10.00       9.956       9.915       9.866       9.809       9.732       9.631       9.531       9.445       9.351    
        9.248       9.151       9.031       8.900       8.786       8.678       8.551       8.429       8.232       7.937    
        7.714       7.534       7.296       7.112       6.999       6.874       6.659       6.475       6.318       6.136    
        5.906       5.690       5.509       5.297       5.078       4.867       4.518       4.100       3.747       3.389    
        3.053       2.579       2.085       1.784       1.438       1.071      0.7017      0.3159      8.9964E-02   0.000    
  15    10.00       9.965       9.922       9.868       9.800       9.690       9.568       9.481       9.401       9.309    
        9.230       9.132       8.982       8.836       8.735       8.582       8.430       8.304       8.023       7.712    
        7.515       7.292       7.091       7.003       6.924       6.789       6.603       6.426       6.287       6.126    
        5.920       5.742       5.574       5.378       5.151       4.889       4.482       4.021       3.649       3.322    
        2.961       2.483       2.092       1.715       1.304      0.9803      0.6277      0.2900      9.8102E-02   0.000    
  16    10.00       9.971       9.925       9.859       9.760       9.629       9.521       9.452       9.383       9.291    
        9.197       9.059       8.879       8.743       8.607       8.439       8.338       8.108       7.734       7.473    
        7.299       7.112       7.023       6.955       6.849       6.695       6.544       6.422       6.300       6.141    
        5.949       5.774       5.627       5.427       5.151       4.805       4.347       3.949       3.651       3.301    
        2.881       2.410       1.990       1.582       1.228      0.8691      0.5637      0.2932      0.1046       0.000    
  17    10.00       9.967       9.912       9.824       9.712       9.578       9.483       9.424       9.343       9.248    
        9.087       8.901       8.755       8.623       8.457       8.298       8.108       7.766       7.466       7.305    
        7.169       7.054       6.990       6.886       6.742       6.629       6.553       6.460       6.325       6.140    
        5.960       5.794       5.634       5.441       5.064       4.617       4.262       3.994       3.701       3.277    
        2.745       2.285       1.895       1.512       1.102      0.7256      0.4810      0.2665      0.1110       0.000    
  18    10.00       9.954       9.884       9.782       9.636       9.524       9.458       9.372       9.276       9.138    
        8.941       8.790       8.658       8.468       8.263       8.058       7.809       7.528       7.347       7.225    
        7.121       7.024       6.932       6.809       6.696       6.630       6.576       6.494       6.346       6.155    
        5.979       5.802       5.596       5.306       4.927       4.560       4.271       4.049       3.680       3.163    
        2.650       2.168       1.776       1.417       1.024      0.6698      0.4068      0.2229      0.1040       0.000    
  19    10.00       9.938       9.858       9.711       9.567       9.502       9.420       9.310       9.195       9.042    
        8.871       8.725       8.523       8.264       8.059       7.867       7.612       7.392       7.281       7.203    
        7.100       6.993       6.897       6.788       6.706       6.647       6.586       6.492       6.347       6.171    
        5.993       5.788       5.514       5.205       4.882       4.563       4.308       4.023       3.507       3.000    
        2.595       2.102       1.677       1.327      0.9408      0.6039      0.3662      0.2116      0.1059       0.000    
  20    10.00       9.920       9.797       9.645       9.540       9.467       9.377       9.261       9.126       8.986    
        8.811       8.601       8.336       8.106       7.931       7.710       7.488       7.376       7.284       7.187    
        7.089       6.985       6.878       6.788       6.725       6.663       6.582       6.474       6.336       6.164    
        5.981       5.764       5.476       5.175       4.870       4.586       4.312       3.874       3.334       2.904    
        2.457       1.981       1.605       1.255      0.8949      0.5427      0.3180      0.2134      0.1078       0.000    
  21    10.00       9.874       9.748       9.625       9.516       9.434       9.337       9.190       9.055       8.922    
        8.698       8.441       8.200       8.016       7.834       7.628       7.473       7.380       7.284       7.187    
        7.082       6.981       6.893       6.809       6.733       6.656       6.574       6.454       6.302       6.138    
        5.956       5.720       5.445       5.160       4.872       4.589       4.202       3.759       3.286       2.775    
        2.326       1.880       1.555       1.234      0.7771      0.4578      0.3257      0.2375      0.1141       0.000    
  22    10.00       9.856       9.708       9.589       9.497       9.400       9.260       9.116       8.998       8.825    
        8.594       8.330       8.126       7.976       7.780       7.595       7.468       7.379       7.291       7.189    
        7.086       7.000       6.915       6.826       6.736       6.654       6.558       6.404       6.253       6.109    
        5.908       5.676       5.436       5.149       4.858       4.578       4.167       3.713       3.158       2.654    
        2.267       1.862       1.502       1.027      0.6382      0.4583      0.3443      0.2288      9.0789E-02   0.000    
  23    10.00       9.825       9.682       9.583       9.484       9.341       9.185       9.074       8.927       8.750    
        8.518       8.285       8.128       7.940       7.732       7.574       7.471       7.393       7.301       7.192    
        7.095       7.018       6.941       6.857       6.753       6.635       6.505       6.359       6.214       6.057    
        5.872       5.638       5.396       5.146       4.854       4.547       4.156       3.589       3.005       2.591    
        2.220       1.761       1.246      0.8356      0.6213      0.4696      0.3432      0.2175      0.1012       0.000    
  24    10.00       9.802       9.699       9.586       9.447       9.292       9.169       9.049       8.906       8.703    
        8.490       8.309       8.135       7.909       7.690       7.568       7.486       7.408       7.304       7.200    
        7.114       7.042       6.962       6.870       6.748       6.611       6.469       6.311       6.169       6.008    
        5.812       5.590       5.368       5.102       4.817       4.504       4.018       3.422       2.925       2.486    
        2.037       1.555       1.101      0.7952      0.6169      0.4660      0.3347      0.2535      0.1395       0.000    
  25    10.00       9.828       9.719       9.584       9.438       9.299       9.174       9.059       8.884       8.682    
        8.503       8.328       8.114       7.864       7.696       7.586       7.496       7.406       7.310       7.217    
        7.131       7.067       6.972       6.851       6.726       6.592       6.444       6.293       6.128       5.941    
        5.754       5.559       5.318       5.009       4.714       4.350       3.858       3.287       2.835       2.361    
        1.844       1.391       1.022      0.7850      0.6408      0.5005      0.3655      0.2693      0.1757       0.000    
  26    10.00       9.853       9.751       9.606       9.455       9.333       9.202       9.057       8.877       8.718    
        8.561       8.323       8.051       7.840       7.718       7.620       7.511       7.393       7.292       7.213    
        7.150       7.082       6.978       6.849       6.727       6.591       6.428       6.269       6.082       5.865    
        5.662       5.485       5.227       4.931       4.651       4.259       3.624       3.105       2.730       2.155    
        1.598       1.225       1.009      0.8507      0.6976      0.5423      0.4018      0.2942      0.1756       0.000    
  27    10.00       9.886       9.762       9.639       9.504       9.362       9.232       9.090       8.927       8.771    
        8.557       8.272       8.036       7.863       7.755       7.640       7.496       7.369       7.286       7.221    
        7.164       7.085       6.981       6.877       6.717       6.553       6.411       6.235       6.024       5.790    
        5.594       5.418       5.179       4.887       4.524       3.938       3.360       2.963       2.398       1.843    
        1.449       1.207       1.051      0.9166      0.7753      0.5963      0.4291      0.3211      0.2158       0.000    
  28    10.00       9.897       9.792       9.674       9.552       9.417       9.281       9.137       8.980       8.798    
        8.530       8.269       8.060       7.891       7.776       7.653       7.526       7.398       7.289       7.221    
        7.162       7.087       6.997       6.869       6.699       6.532       6.372       6.197       5.989       5.754    
        5.530       5.343       5.084       4.717       4.224       3.645       3.175       2.649       2.102       1.738    
        1.454       1.256       1.101      0.9678      0.8226      0.6513      0.4858      0.3649      0.2224       0.000    
  29    10.00       9.902       9.803       9.714       9.596       9.472       9.341       9.194       9.026       8.778    
        8.512       8.280       8.076       7.932       7.792       7.656       7.536       7.428       7.320       7.228    
        7.154       7.077       6.989       6.866       6.691       6.518       6.339       6.171       5.944       5.656    
        5.423       5.162       4.893       4.438       3.902       3.416       2.950       2.432       2.022       1.762    
        1.531       1.313       1.144       1.014      0.8726      0.6970      0.5266      0.3853      0.2246       0.000    
  30    10.00       9.910       9.828       9.750       9.647       9.533       9.414       9.249       9.036       8.779    
        8.502       8.262       8.089       7.941       7.797       7.664       7.557       7.463       7.355       7.240    
        7.146       7.060       6.963       6.848       6.652       6.459       6.295       6.122       5.858       5.553    
        5.242       4.900       4.588       4.160       3.758       3.317       2.845       2.379       2.083       1.847    
        1.586       1.372       1.209       1.054      0.8947      0.7393      0.5607      0.4013      0.2424       0.000    
  31    10.00       9.925       9.854       9.781       9.705       9.614       9.483       9.285       9.034       8.766    
        8.496       8.269       8.101       7.944       7.814       7.684       7.572       7.491       7.368       7.246    
        7.142       7.032       6.921       6.751       6.563       6.417       6.274       6.078       5.771       5.413    
        5.010       4.655       4.370       4.068       3.685       3.238       2.796       2.419       2.183       1.970    
        1.699       1.452       1.262       1.098      0.9398      0.7752      0.5964      0.4284      0.2357       0.000    
  32    10.00       9.937       9.882       9.818       9.744       9.661       9.528       9.301       9.062       8.815    
        8.524       8.285       8.113       7.962       7.822       7.706       7.604       7.493       7.379       7.256    
        7.117       6.991       6.836       6.649       6.515       6.421       6.268       5.987       5.597       5.194    
        4.834       4.542       4.280       4.009       3.651       3.256       2.888       2.560       2.307       2.067    
        1.814       1.557       1.354       1.163      0.9820      0.8334      0.6504      0.4284      0.2127       0.000    
  33    10.00       9.945       9.900       9.848       9.776       9.680       9.509       9.288       9.088       8.854    
        8.566       8.323       8.139       7.966       7.828       7.730       7.632       7.513       7.384       7.238    
        7.090       6.936       6.747       6.598       6.504       6.407       6.139       5.777       5.421       5.092    
        4.778       4.537       4.290       3.967       3.638       3.286       2.974       2.710       2.446       2.182    
        1.947       1.703       1.481       1.280       1.080      0.9037      0.6982      0.4367      0.2057       0.000    
  34    10.00       9.950       9.920       9.874       9.784       9.649       9.483       9.319       9.111       8.854    
        8.594       8.351       8.148       7.968       7.848       7.768       7.657       7.523       7.361       7.212    
        7.055       6.861       6.688       6.562       6.458       6.276       5.970       5.679       5.353       5.008    
        4.755       4.563       4.333       4.020       3.695       3.379       3.093       2.855       2.586       2.322    
        2.098       1.874       1.639       1.434       1.221       1.014      0.7532      0.4837      0.2550       0.000    
  35    10.00       9.959       9.924       9.865       9.751       9.608       9.486       9.345       9.150       8.869    
        8.588       8.355       8.144       7.992       7.892       7.799       7.667       7.505       7.336       7.163    
        6.970       6.781       6.606       6.483       6.364       6.196       5.911       5.587       5.251       4.941    
        4.763       4.572       4.335       4.098       3.825       3.495       3.211       3.020       2.749       2.456    
        2.246       2.023       1.799       1.598       1.361       1.130      0.8675      0.5789      0.2893       0.000    
  36    10.00       9.956       9.906       9.839       9.725       9.589       9.478       9.344       9.145       8.878    
        8.580       8.324       8.166       8.049       7.948       7.820       7.652       7.483       7.284       7.032    
        6.831       6.672       6.526       6.416       6.309       6.114       5.810       5.490       5.160       4.903    
        4.743       4.581       4.368       4.149       3.918       3.620       3.339       3.132       2.895       2.581    
        2.346       2.120       1.892       1.726       1.498       1.242      0.9802      0.6789      0.3453       0.000    
  37    10.00       9.941       9.885       9.812       9.696       9.571       9.446       9.314       9.130       8.839    
        8.535       8.326       8.229       8.112       7.972       7.833       7.625       7.407       7.134       6.871    
        6.742       6.617       6.475       6.353       6.220       5.981       5.711       5.374       5.099       4.923    
        4.770       4.598       4.382       4.194       3.955       3.671       3.451       3.251       2.989       2.676    
        2.395       2.175       1.994       1.809       1.592       1.355       1.104      0.7661      0.4150       0.000    
  38    10.00       9.934       9.861       9.782       9.675       9.551       9.410       9.272       9.074       8.803    
        8.569       8.402       8.277       8.163       7.995       7.763       7.514       7.227       6.929       6.776    
        6.676       6.515       6.365       6.266       6.108       5.876       5.556       5.267       5.120       4.982    
        4.811       4.620       4.417       4.227       3.994       3.736       3.540       3.336       3.024       2.698    
        2.454       2.251       2.067       1.882       1.689       1.461       1.201      0.8765      0.4547       0.000    
  39    10.00       9.916       9.841       9.762       9.656       9.516       9.364       9.217       9.035       8.815    
        8.631       8.504       8.358       8.185       7.912       7.600       7.283       6.974       6.802       6.714    
        6.559       6.381       6.274       6.179       6.027       5.760       5.463       5.291       5.164       5.018    
        4.834       4.655       4.450       4.248       4.051       3.840       3.614       3.377       3.057       2.736    
        2.480       2.276       2.133       1.986       1.777       1.543       1.282      0.9286      0.4547       0.000    
  40    10.00       9.901       9.828       9.748       9.640       9.493       9.335       9.186       9.032       8.847    
        8.693       8.580       8.383       8.086       7.730       7.378       7.061       6.859       6.753       6.630    
        6.454       6.305       6.214       6.088       5.913       5.698       5.513       5.345       5.196       5.057    
        4.887       4.689       4.483       4.294       4.114       3.900       3.657       3.420       3.072       2.722    
        2.491       2.322       2.173       2.047       1.835       1.575       1.335      0.9648      0.4763       0.000    
  41    10.00       9.908       9.822       9.733       9.612       9.478       9.340       9.205       9.056       8.890    
        8.742       8.595       8.313       7.927       7.534       7.218       6.976       6.809       6.697       6.552    
        6.371       6.246       6.136       6.003       5.855       5.707       5.574       5.413       5.235       5.075    
        4.922       4.735       4.527       4.356       4.169       3.960       3.712       3.382       2.997       2.728    
        2.541       2.365       2.228       2.069       1.846       1.588       1.376       1.024      0.5243       0.000    
  42    10.00       9.910       9.814       9.731       9.626       9.501       9.362       9.211       9.076       8.946    
        8.762       8.487       8.130       7.732       7.380       7.140       6.931       6.776       6.641       6.466    
        6.301       6.183       6.069       5.977       5.856       5.750       5.627       5.442       5.251       5.109    
        4.977       4.774       4.552       4.392       4.232       3.998       3.679       3.284       2.943       2.739    
        2.589       2.440       2.271       2.064       1.832       1.625       1.411       1.066      0.5485       0.000    
  43    10.00       9.911       9.822       9.737       9.653       9.541       9.401       9.251       9.102       8.910    
        8.635       8.317       7.953       7.571       7.303       7.103       6.905       6.739       6.575       6.401    
        6.249       6.138       6.057       5.987       5.882       5.769       5.647       5.465       5.296       5.181    
        5.013       4.791       4.583       4.425       4.241       3.955       3.581       3.200       2.963       2.802    
        2.644       2.483       2.276       2.053       1.842       1.641       1.449       1.063      0.4788       0.000    
  44    10.00       9.905       9.824       9.750       9.657       9.570       9.451       9.266       9.061       8.790    
        8.510       8.176       7.779       7.503       7.297       7.075       6.859       6.667       6.488       6.334    
        6.226       6.140       6.066       5.994       5.903       5.787       5.644       5.502       5.371       5.227    
        5.065       4.865       4.630       4.407       4.191       3.899       3.509       3.181       2.991       2.835    
        2.684       2.506       2.299       2.100       1.879       1.656       1.405      0.9101      0.4022       0.000    
  45    10.00       9.905       9.838       9.753       9.665       9.587       9.410       9.197       8.954       8.686    
        8.452       8.051       7.683       7.478       7.265       7.022       6.776       6.579       6.423       6.314    
        6.238       6.163       6.086       5.999       5.902       5.795       5.676       5.556       5.449       5.301    
        5.107       4.893       4.655       4.386       4.141       3.824       3.458       3.200       3.044       2.888    
        2.691       2.486       2.304       2.124       1.931       1.692       1.267      0.7628      0.3863       0.000    
  46    10.00       9.922       9.850       9.759       9.662       9.513       9.326       9.149       8.926       8.665    
        8.326       7.958       7.663       7.406       7.189       6.948       6.702       6.549       6.433       6.333    
        6.263       6.194       6.101       5.998       5.902       5.808       5.711       5.604       5.497       5.360    
        5.180       4.956       4.692       4.388       4.047       3.707       3.441       3.265       3.092       2.912    
        2.686       2.472       2.291       2.147       1.939       1.605       1.136      0.7184      0.3650       0.000    
  47    10.00       9.939       9.872       9.777       9.608       9.429       9.268       9.116       8.916       8.590    
        8.225       7.883       7.599       7.383       7.151       6.884       6.672       6.536       6.444       6.362    
        6.287       6.206       6.114       6.012       5.918       5.837       5.751       5.646       5.522       5.387    
        5.227       5.028       4.687       4.284       3.964       3.714       3.483       3.332       3.173       2.923    
        2.654       2.429       2.261       2.143       1.883       1.485       1.054      0.6912      0.3548       0.000    
  48    10.00       9.946       9.875       9.733       9.562       9.413       9.242       9.088       8.875       8.530    
        8.133       7.823       7.593       7.336       7.065       6.826       6.667       6.535       6.446       6.385    
        6.310       6.212       6.111       6.023       5.947       5.879       5.797       5.680       5.534       5.376    
        5.211       4.982       4.630       4.300       4.020       3.772       3.556       3.385       3.180       2.880    
        2.596       2.415       2.275       2.055       1.707       1.351       1.006      0.6961      0.3745       0.000    
  49    10.00       9.943       9.842       9.714       9.574       9.401       9.229       9.056       8.792       8.427    
        8.085       7.795       7.518       7.274       7.065       6.840       6.635       6.515       6.457       6.398    
        6.327       6.217       6.105       6.032       5.970       5.916       5.824       5.682       5.516       5.365    
        5.192       4.913       4.615       4.394       4.138       3.847       3.585       3.379       3.142       2.823    
        2.593       2.435       2.226       1.894       1.585       1.294      0.9949      0.6960      0.3732       0.000    
  50    10.00       9.935       9.830       9.700       9.573       9.411       9.218       9.003       8.724       8.436    
        8.078       7.716       7.458       7.264       7.088       6.834       6.607       6.517       6.465       6.406    
        6.335       6.221       6.107       6.036       5.983       5.933       5.829       5.666       5.498       5.355    
        5.177       4.890       4.660       4.461       4.193       3.904       3.630       3.347       3.024       2.757    
        2.638       2.459       2.136       1.803       1.574       1.292       1.009      0.6816      0.3039       0.000    

 HEAD WILL BE SAVED ON UNIT   51 AT END OF TIME STEP   1, STRESS PERIOD    1

 DRAWDOWN WILL BE SAVED ON UNIT   52 AT END OF TIME STEP   1, STRESS PERIOD    1
1
  VOLUMETRIC BUDGET FOR ENTIRE MODEL AT END OF TIME STEP  1 IN STRESS PERIOD   1
  ------------------------------------------------------------------------------

     CUMULATIVE VOLUMES      L**3       RATES FOR THIS TIME STEP      L**3/T
     ------------------                 ------------------------

           IN:                                      IN:
           ---                                      ---
             STORAGE =           0.0000               STORAGE =           0.0000
       CONSTANT HEAD =         597.0887         CONSTANT HEAD =         597.0887
               WELLS =           0.0000                 WELLS =           0.0000

            TOTAL IN =         597.0887              TOTAL IN =         597.0887

          OUT:                                     OUT:
          ----                                     ----
             STORAGE =           0.0000               STORAGE =           0.0000
       CONSTANT HEAD =         597.0886         CONSTANT HEAD =         597.0886
               WELLS =           0.0000                 WELLS =           0.0000

           TOTAL OUT =         597.0886             TOTAL OUT =         597.0886

            IN - OUT =       1.2207E-04              IN - OUT =       1.2207E-04

 PERCENT DISCREPANCY =           0.00     PERCENT DISCREPANCY =           0.00






          TIME SUMMARY AT END OF TIME STEP   1 IN STRESS PERIOD    1
                    SECONDS     MINUTES      HOURS       DAYS        YEARS
                    -----------------------------------------------------------
   TIME STEP LENGTH  86400.      1440.0      24.000      1.0000     2.73785E-03
 STRESS PERIOD TIME  86400.      1440.0      24.000      1.0000     2.73785E-03
         TOTAL TIME  86400.      1440.0      24.000      1.0000     2.73785E-03
1
1
                            STRESS PERIOD NO.    2, LENGTH =   100.0000    
                            -----------------------------------------------

                              NUMBER OF TIME STEPS =   100

                               MULTIPLIER FOR DELT =     1.000

                            INITIAL TIME STEP SIZE =   1.000000    

 WELL NO.  LAYER   ROW   COL   STRESS RATE         
 --------------------------------------------------
      1      1     25     25      -500.0    

      1 WELL
 
 SOLVING FOR HEAD 

 OUTPUT CONTROL FOR STRESS PERIOD    2   TIME STEP   1
    SAVE HEAD FOR ALL LAYERS
    SAVE DRAWDOWN FOR ALL LAYERS
    SAVE BUDGET
    PRINT HEAD FOR ALL LAYERS
    PRINT BUDGET
 UBDSV1 SAVING "         STORAGE" ON UNIT  53 AT TIME STEP  1, STRESS PERIOD   2
 UBDSV2 SAVING "   CONSTANT HEAD" ON UNIT  53 AT TIME STEP  1, STRESS PERIOD   2
 UBDSV1 SAVING "FLOW RIGHT FACE " ON UNIT  53 AT TIME STEP  1, STRESS PERIOD   2
 UBDSV1 SAVING "FLOW FRONT FACE " ON UNIT  53 AT TIME STEP  1, STRESS PERIOD   2
1
              HEAD IN LAYER   1 AT END OF TIME STEP   1 IN STRESS PERIOD    2
  ---------------------------------------------------------------------------

            1           2           3           4           5           6           7           8           9          10
           11          12          13          14          15          16          17          18          19          20
           21          22          23          24          25          26          27          28          29          30
           31          32          33          34          35          36          37          38          39          40
           41          42          43          44          45          46          47          48          49          50
 ........................................................................................................................
   1    10.00       9.960       9.902       9.836       9.772       9.700       9.631       9.563       9.478       9.394    
        9.330       9.266       9.201       9.138       9.035       8.911       8.773       8.665       8.608       8.542    
        8.463       8.399       8.336       8.261       8.161       7.964       7.741       7.584       7.430       7.285    
        7.096       6.795       6.409       5.982       5.540       5.070       4.605       4.218       3.713       3.165    
        2.715       2.285       1.807       1.408       1.161      0.9524      0.7868      0.6669      0.4476       0.000    
   2    10.00       9.959       9.906       9.840       9.775       9.711       9.643       9.554       9.461       9.392    
        9.336       9.282       9.227       9.149       9.031       8.902       8.772       8.665       8.607       8.533    
        8.454       8.406       8.355       8.277       8.151       7.958       7.756       7.594       7.438       7.297    
        7.086       6.770       6.366       5.880       5.408       4.954       4.551       4.178       3.664       3.134    
        2.683       2.198       1.763       1.449       1.217       1.037      0.8317      0.6492      0.3621       0.000    
   3    10.00       9.953       9.901       9.842       9.785       9.720       9.633       9.539       9.473       9.412    
        9.349       9.300       9.252       9.176       9.055       8.896       8.755       8.668       8.600       8.525    
        8.461       8.411       8.358       8.256       8.119       7.948       7.773       7.645       7.464       7.278    
        7.014       6.640       6.182       5.712       5.292       4.867       4.472       4.072       3.540       3.049    
        2.661       2.214       1.814       1.526       1.295       1.109      0.8655      0.5802      0.2630       0.000    
   4    10.00       9.953       9.902       9.845       9.781       9.705       9.616       9.544       9.487       9.424    
        9.369       9.327       9.274       9.188       9.071       8.902       8.756       8.674       8.598       8.531    
        8.462       8.401       8.335       8.228       8.094       7.941       7.782       7.626       7.467       7.256    
        6.925       6.434       5.949       5.592       5.239       4.799       4.324       3.855       3.430       3.057    
        2.693       2.277       1.900       1.639       1.379       1.142      0.8410      0.5220      0.2500       0.000    
   5    10.00       9.950       9.899       9.834       9.769       9.699       9.619       9.557       9.498       9.439    
        9.391       9.351       9.280       9.181       9.052       8.899       8.774       8.685       8.611       8.522    
        8.441       8.375       8.295       8.190       8.070       7.915       7.757       7.613       7.451       7.198    
        6.728       6.184       5.795       5.514       5.164       4.685       4.194       3.767       3.446       3.108    
        2.749       2.365       1.990       1.746       1.467       1.125      0.7657      0.4656      0.2342       0.000    
   6    10.00       9.943       9.882       9.829       9.769       9.693       9.625       9.572       9.510       9.454    
        9.409       9.360       9.272       9.161       9.049       8.920       8.795       8.693       8.596       8.495    
        8.413       8.337       8.268       8.173       8.021       7.870       7.741       7.595       7.372       6.994    
        6.480       5.989       5.665       5.419       5.102       4.627       4.136       3.771       3.499       3.191    
        2.860       2.520       2.135       1.808       1.438       1.061      0.6765      0.4019      0.2213       0.000    
   7    10.00       9.932       9.873       9.823       9.762       9.698       9.638       9.587       9.530       9.476    
        9.420       9.347       9.251       9.146       9.040       8.940       8.810       8.674       8.562       8.463    
        8.378       8.305       8.244       8.130       7.975       7.845       7.715       7.524       7.176       6.699    
        6.206       5.806       5.581       5.359       4.990       4.547       4.213       3.855       3.554       3.350    
        3.034       2.667       2.214       1.748       1.334      0.9219      0.5831      0.4050      0.2085       0.000    
   8    10.00       9.931       9.878       9.822       9.760       9.704       9.651       9.600       9.548       9.496    
        9.423       9.330       9.235       9.136       9.039       8.927       8.768       8.625       8.535       8.440    
        8.346       8.282       8.197       8.077       7.944       7.808       7.595       7.302       6.875       6.457    
        6.080       5.760       5.548       5.292       4.900       4.529       4.227       3.961       3.722       3.485    
        3.175       2.713       2.156       1.660       1.228      0.8635      0.6175      0.3969      0.1902       0.000    
   9    10.00       9.942       9.877       9.816       9.770       9.724       9.671       9.617       9.559       9.503    
        9.420       9.315       9.213       9.115       9.012       8.881       8.729       8.598       8.501       8.405    
        8.322       8.242       8.129       8.017       7.897       7.736       7.438       7.048       6.650       6.342    
        6.027       5.751       5.515       5.192       4.825       4.510       4.277       4.075       3.860       3.598    
        3.225       2.720       2.152       1.658       1.238      0.8830      0.6233      0.4005      0.2048       0.000    
  10    10.00       9.940       9.872       9.821       9.779       9.734       9.686       9.640       9.574       9.492    
        9.393       9.283       9.187       9.095       8.991       8.833       8.673       8.561       8.471       8.381    
        8.303       8.198       8.074       7.951       7.816       7.596       7.228       6.820       6.472       6.223    
        6.012       5.766       5.484       5.152       4.800       4.526       4.340       4.163       3.929       3.628    
        3.201       2.678       2.158       1.736       1.341      0.9723      0.6430      0.4254      0.2286       0.000    
  11    10.00       9.927       9.872       9.831       9.789       9.751       9.707       9.643       9.553       9.463    
        9.364       9.257       9.169       9.061       8.921       8.772       8.642       8.542       8.460       8.370    
        8.259       8.129       7.971       7.834       7.625       7.327       7.010       6.695       6.389       6.189    
        6.021       5.719       5.401       5.124       4.845       4.622       4.423       4.195       3.906       3.544    
        3.143       2.737       2.236       1.819       1.443       1.076      0.7227      0.4178      0.1752       0.000    
  12    10.00       9.930       9.879       9.835       9.800       9.760       9.710       9.622       9.518       9.432    
        9.341       9.232       9.125       8.999       8.878       8.743       8.618       8.531       8.444       8.327    
        8.157       7.973       7.794       7.612       7.345       7.116       6.911       6.608       6.340       6.163    
        5.966       5.695       5.416       5.150       4.934       4.719       4.462       4.184       3.833       3.468    
        3.127       2.759       2.275       1.864       1.509       1.125      0.7607      0.3943      0.1308       0.000    
  13    10.00       9.943       9.895       9.849       9.807       9.760       9.682       9.581       9.485       9.397    
        9.296       9.191       9.083       8.954       8.823       8.697       8.607       8.506       8.396       8.187    
        7.946       7.757       7.565       7.335       7.127       6.997       6.774       6.507       6.336       6.162    
        5.916       5.663       5.434       5.215       5.020       4.817       4.507       4.127       3.786       3.440    
        3.113       2.731       2.212       1.830       1.525       1.116      0.6997      0.3407      0.1043       0.000    
  14    10.00       9.956       9.915       9.866       9.809       9.732       9.631       9.531       9.445       9.351    
        9.248       9.151       9.031       8.900       8.786       8.678       8.551       8.429       8.232       7.937    
        7.714       7.534       7.296       7.112       6.998       6.873       6.658       6.475       6.317       6.135    
        5.905       5.690       5.509       5.297       5.078       4.867       4.518       4.100       3.747       3.389    
        3.053       2.579       2.085       1.784       1.438       1.071      0.7017      0.3159      8.9964E-02   0.000    
  15    10.00       9.965       9.922       9.868       9.800       9.690       9.568       9.481       9.401       9.309    
        9.230       9.132       8.982       8.836       8.735       8.581       8.430       8.304       8.023       7.712    
        7.514       7.292       7.090       7.002       6.923       6.788       6.602       6.425       6.286       6.126    
        5.919       5.742       5.574       5.378       5.151       4.889       4.482       4.021       3.649       3.322    
        2.961       2.483       2.092       1.715       1.304      0.9803      0.6277      0.2900      9.8102E-02   0.000    
  16    10.00       9.971       9.925       9.859       9.760       9.629       9.521       9.452       9.383       9.291    
        9.197       9.059       8.879       8.743       8.607       8.439       8.338       8.108       7.733       7.472    
        7.298       7.111       7.021       6.954       6.847       6.693       6.541       6.420       6.299       6.140    
        5.948       5.774       5.627       5.427       5.151       4.805       4.347       3.949       3.651       3.301    
        2.881       2.410       1.990       1.582       1.228      0.8691      0.5637      0.2932      0.1046       0.000    
  17    10.00       9.967       9.912       9.824       9.712       9.578       9.483       9.424       9.343       9.248    
        9.087       8.901       8.755       8.623       8.457       8.298       8.108       7.766       7.465       7.304    
        7.167       7.052       6.988       6.883       6.737       6.624       6.548       6.457       6.323       6.140    
        5.959       5.793       5.634       5.441       5.064       4.617       4.262       3.994       3.701       3.277    
        2.745       2.285       1.895       1.512       1.102      0.7256      0.4810      0.2665      0.1110       0.000    
  18    10.00       9.954       9.884       9.782       9.636       9.524       9.458       9.372       9.276       9.138    
        8.941       8.790       8.658       8.468       8.263       8.058       7.809       7.528       7.346       7.223    
        7.118       7.020       6.927       6.802       6.688       6.623       6.570       6.489       6.343       6.154    
        5.978       5.801       5.596       5.306       4.927       4.560       4.271       4.049       3.680       3.163    
        2.650       2.168       1.776       1.417       1.024      0.6698      0.4068      0.2229      0.1040       0.000    
  19    10.00       9.938       9.858       9.711       9.567       9.502       9.420       9.310       9.195       9.042    
        8.871       8.725       8.523       8.264       8.059       7.866       7.612       7.390       7.278       7.200    
        7.095       6.985       6.887       6.776       6.694       6.637       6.578       6.487       6.344       6.170    
        5.992       5.788       5.514       5.205       4.882       4.563       4.308       4.023       3.507       3.000    
        2.595       2.102       1.677       1.327      0.9408      0.6039      0.3662      0.2116      0.1059       0.000    
  20    10.00       9.920       9.797       9.645       9.540       9.467       9.377       9.261       9.126       8.986    
        8.811       8.601       8.336       8.106       7.931       7.709       7.487       7.374       7.281       7.182    
        7.081       6.974       6.862       6.770       6.707       6.648       6.570       6.467       6.331       6.162    
        5.980       5.763       5.475       5.175       4.870       4.586       4.312       3.874       3.334       2.904    
        2.457       1.981       1.605       1.255      0.8949      0.5427      0.3180      0.2134      0.1078       0.000    
  21    10.00       9.874       9.748       9.625       9.516       9.434       9.337       9.190       9.055       8.922    
        8.698       8.441       8.200       8.016       7.834       7.627       7.472       7.377       7.280       7.180    
        7.070       6.961       6.867       6.778       6.701       6.628       6.553       6.442       6.295       6.134    
        5.954       5.719       5.445       5.160       4.872       4.589       4.202       3.759       3.286       2.775    
        2.326       1.880       1.555       1.234      0.7771      0.4578      0.3257      0.2375      0.1141       0.000    
  22    10.00       9.856       9.708       9.589       9.497       9.400       9.260       9.116       8.998       8.825    
        8.594       8.330       8.126       7.976       7.780       7.594       7.466       7.376       7.286       7.178    
        7.066       6.968       6.868       6.764       6.670       6.601       6.522       6.384       6.243       6.103    
        5.905       5.675       5.435       5.149       4.858       4.578       4.167       3.713       3.158       2.654    
        2.267       1.862       1.502       1.027      0.6382      0.4583      0.3443      0.2288      9.0789E-02   0.000    
  23    10.00       9.825       9.682       9.583       9.484       9.341       9.185       9.074       8.927       8.750    
        8.518       8.285       8.128       7.940       7.731       7.573       7.469       7.389       7.295       7.177    
        7.066       6.968       6.859       6.724       6.575       6.508       6.438       6.325       6.197       6.050    
        5.868       5.636       5.396       5.146       4.854       4.547       4.156       3.589       3.005       2.591    
        2.220       1.761       1.246      0.8356      0.6213      0.4696      0.3432      0.2175      0.1012       0.000    
  24    10.00       9.802       9.699       9.586       9.447       9.292       9.169       9.049       8.906       8.703    
        8.490       8.309       8.135       7.908       7.689       7.567       7.484       7.404       7.295       7.182    
        7.080       6.978       6.831       6.555       6.055       6.243       6.320       6.254       6.145       5.998    
        5.808       5.589       5.367       5.101       4.817       4.504       4.018       3.422       2.925       2.486    
        2.037       1.555       1.101      0.7952      0.6169      0.4660      0.3347      0.2535      0.1395       0.000    
  25    10.00       9.828       9.719       9.584       9.438       9.299       9.174       9.059       8.884       8.682    
        8.503       8.328       8.114       7.864       7.695       7.585       7.494       7.402       7.302       7.200    
        7.097       7.003       6.767       6.095       3.884       5.783       6.181       6.204       6.098       5.930    
        5.750       5.557       5.317       5.009       4.714       4.350       3.858       3.287       2.835       2.361    
        1.844       1.391       1.022      0.7850      0.6408      0.5005      0.3655      0.2693      0.1757       0.000    
  26    10.00       9.853       9.751       9.606       9.455       9.333       9.202       9.057       8.877       8.718    
        8.561       8.323       8.051       7.840       7.718       7.619       7.510       7.389       7.284       7.199    
        7.122       7.029       6.833       6.430       5.859       6.153       6.265       6.206       6.060       5.858    
        5.660       5.484       5.227       4.931       4.651       4.259       3.624       3.105       2.730       2.155    
        1.598       1.225       1.009      0.8507      0.6976      0.5423      0.4018      0.2942      0.1756       0.000    
  27    10.00       9.886       9.762       9.639       9.504       9.362       9.232       9.090       8.927       8.771    
        8.557       8.272       8.036       7.863       7.755       7.639       7.494       7.365       7.279       7.210    
        7.144       7.046       6.896       6.704       6.449       6.379       6.326       6.200       6.012       5.786    
        5.592       5.417       5.179       4.887       4.523       3.938       3.360       2.963       2.398       1.843    
        1.449       1.207       1.051      0.9166      0.7753      0.5963      0.4291      0.3211      0.2158       0.000    
  28    10.00       9.897       9.792       9.674       9.552       9.417       9.281       9.137       8.980       8.798    
        8.530       8.269       8.060       7.891       7.776       7.652       7.525       7.395       7.283       7.211    
        7.148       7.065       6.958       6.804       6.618       6.465       6.332       6.179       5.982       5.751    
        5.529       5.342       5.084       4.716       4.224       3.645       3.175       2.649       2.102       1.738    
        1.454       1.256       1.101      0.9678      0.8226      0.6513      0.4858      0.3649      0.2224       0.000    
  29    10.00       9.902       9.803       9.714       9.596       9.472       9.341       9.194       9.026       8.778    
        8.512       8.280       8.076       7.932       7.792       7.655       7.535       7.426       7.317       7.221    
        7.145       7.064       6.971       6.844       6.664       6.494       6.324       6.163       5.941       5.655    
        5.422       5.162       4.893       4.438       3.902       3.416       2.950       2.432       2.022       1.762    
        1.531       1.313       1.144       1.014      0.8726      0.6970      0.5266      0.3853      0.2246       0.000    
  30    10.00       9.910       9.828       9.750       9.647       9.533       9.414       9.249       9.036       8.779    
        8.502       8.262       8.089       7.941       7.797       7.664       7.557       7.462       7.353       7.236    
        7.141       7.053       6.955       6.839       6.645       6.452       6.290       6.119       5.857       5.553    
        5.242       4.900       4.588       4.160       3.758       3.317       2.845       2.379       2.083       1.847    
        1.586       1.372       1.209       1.054      0.8947      0.7393      0.5607      0.4013      0.2424       0.000    
  31    10.00       9.925       9.854       9.781       9.705       9.614       9.483       9.285       9.034       8.766    
        8.496       8.269       8.101       7.944       7.813       7.684       7.572       7.491       7.367       7.245    
        7.139       7.029       6.918       6.749       6.561       6.415       6.272       6.077       5.770       5.413    
        5.010       4.655       4.370       4.068       3.685       3.238       2.796       2.419       2.183       1.970    
        1.699       1.452       1.262       1.098      0.9398      0.7752      0.5964      0.4284      0.2357       0.000    
  32    10.00       9.937       9.882       9.818       9.744       9.661       9.528       9.301       9.062       8.815    
        8.524       8.285       8.113       7.962       7.822       7.706       7.603       7.493       7.379       7.255    
        7.116       6.990       6.835       6.648       6.515       6.420       6.268       5.987       5.597       5.194    
        4.834       4.542       4.280       4.009       3.651       3.256       2.888       2.560       2.307       2.067    
        1.814       1.557       1.354       1.163      0.9820      0.8334      0.6504      0.4284      0.2127       0.000    
  33    10.00       9.945       9.900       9.848       9.776       9.680       9.509       9.288       9.088       8.854    
        8.566       8.323       8.139       7.966       7.828       7.730       7.632       7.513       7.383       7.237    
        7.089       6.935       6.747       6.598       6.504       6.407       6.139       5.777       5.421       5.092    
        4.778       4.537       4.290       3.967       3.638       3.286       2.974       2.710       2.446       2.182    
        1.947       1.703       1.481       1.280       1.080      0.9037      0.6982      0.4367      0.2057       0.000    
  34    10.00       9.950       9.920       9.874       9.784       9.649       9.483       9.319       9.111       8.854    
        8.594       8.351       8.148       7.968       7.848       7.768       7.657       7.523       7.361       7.211    
        7.054       6.861       6.688       6.562       6.457       6.276       5.970       5.679       5.353       5.008    
        4.755       4.563       4.333       4.020       3.695       3.379       3.093       2.855       2.586       2.322    
        2.098       1.874       1.639       1.434       1.221       1.014      0.7532      0.4837      0.2550       0.000    
  35    10.00       9.959       9.924       9.865       9.751       9.608       9.486       9.345       9.150       8.869    
        8.588       8.355       8.144       7.992       7.892       7.799       7.666       7.505       7.336       7.163    
        6.970       6.781       6.605       6.482       6.364       6.196       5.911       5.587       5.251       4.941    
        4.763       4.572       4.335       4.098       3.825       3.495       3.211       3.020       2.749       2.456    
        2.246       2.023       1.799       1.598       1.361       1.130      0.8675      0.5789      0.2893       0.000    
  36    10.00       9.956       9.906       9.839       9.725       9.589       9.478       9.344       9.145       8.878    
        8.580       8.324       8.166       8.049       7.948       7.820       7.652       7.483       7.284       7.032    
        6.831       6.672       6.526       6.416       6.309       6.114       5.810       5.490       5.160       4.903    
        4.743       4.581       4.368       4.149       3.918       3.620       3.339       3.132       2.895       2.581    
        2.346       2.120       1.892       1.726       1.498       1.242      0.9802      0.6789      0.3453       0.000    
  37    10.00       9.941       9.885       9.812       9.696       9.571       9.446       9.314       9.130       8.839    
        8.535       8.326       8.229       8.112       7.972       7.833       7.625       7.407       7.134       6.871    
        6.742       6.617       6.475       6.353       6.220       5.981       5.711       5.374       5.099       4.923    
        4.770       4.598       4.382       4.194       3.955       3.671       3.451       3.251       2.989       2.676    
        2.395       2.175       1.994       1.809       1.592       1.355       1.104      0.7661      0.4150       0.000    
  38    10.00       9.934       9.861       9.782       9.675       9.551       9.410       9.272       9.074       8.803    
        8.569       8.402       8.277       8.163       7.995       7.763       7.514       7.227       6.929       6.776    
        6.676       6.515       6.365       6.266       6.108       5.876       5.556       5.267       5.120       4.982    
        4.811       4.620       4.417       4.227       3.994       3.736       3.540       3.336       3.024       2.698    
        2.454       2.251       2.067       1.882       1.689       1.461       1.201      0.8765      0.4547       0.000    
  39    10.00       9.916       9.841       9.762       9.656       9.516       9.364       9.217       9.035       8.815    
        8.631       8.504       8.358       8.185       7.912       7.600       7.283       6.974       6.802       6.714    
        6.559       6.381       6.274       6.179       6.027       5.760       5.463       5.291       5.164       5.018    
        4.834       4.655       4.450       4.248       4.051       3.840       3.614       3.377       3.057       2.736    
        2.480       2.276       2.133       1.986       1.777       1.543       1.282      0.9286      0.4547       0.000    
  40    10.00       9.901       9.828       9.748       9.640       9.493       9.335       9.186       9.032       8.847    
        8.693       8.580       8.383       8.086       7.730       7.378       7.061       6.859       6.753       6.630    
        6.454       6.305       6.214       6.088       5.913       5.698       5.513       5.345       5.196       5.057    
        4.887       4.689       4.483       4.294       4.114       3.900       3.657       3.420       3.072       2.722    
        2.491       2.322       2.173       2.047       1.835       1.575       1.335      0.9648      0.4763       0.000    
  41    10.00       9.908       9.822       9.733       9.612       9.478       9.340       9.205       9.056       8.890    
        8.742       8.595       8.313       7.927       7.534       7.218       6.976       6.809       6.697       6.552    
        6.371       6.246       6.136       6.003       5.855       5.707       5.574       5.413       5.235       5.075    
        4.922       4.735       4.527       4.356       4.169       3.960       3.712       3.382       2.997       2.728    
        2.541       2.365       2.228       2.069       1.846       1.588       1.376       1.024      0.5243       0.000    
  42    10.00       9.910       9.814       9.731       9.626       9.501       9.362       9.211       9.076       8.946    
        8.762       8.487       8.130       7.732       7.380       7.140       6.931       6.776       6.641       6.466    
        6.301       6.183       6.069       5.977       5.856       5.750       5.627       5.442       5.251       5.109    
        4.977       4.774       4.552       4.392       4.232       3.998       3.679       3.284       2.943       2.739    
        2.589       2.440       2.271       2.064       1.832       1.625       1.411       1.066      0.5485       0.000    
  43    10.00       9.911       9.822       9.737       9.653       9.541       9.401       9.251       9.102       8.910    
        8.635       8.317       7.953       7.571       7.303       7.103       6.905       6.739       6.575       6.401    
        6.249       6.138       6.057       5.987       5.882       5.769       5.647       5.465       5.296       5.181    
        5.013       4.791       4.583       4.425       4.241       3.955       3.581       3.200       2.963       2.802    
        2.644       2.483       2.276       2.053       1.842       1.641       1.449       1.063      0.4788       0.000    
  44    10.00       9.905       9.824       9.750       9.657       9.570       9.451       9.266       9.061       8.790    
        8.510       8.176       7.779       7.503       7.297       7.075       6.859       6.667       6.488       6.334    
        6.226       6.140       6.066       5.994       5.903       5.787       5.644       5.502       5.371       5.227    
        5.065       4.865       4.630       4.407       4.191       3.899       3.509       3.181       2.991       2.835    
        2.684       2.506       2.299       2.100       1.879       1.656       1.405      0.9101      0.4022       0.000    
  45    10.00       9.905       9.838       9.753       9.665       9.587       9.410       9.197       8.954       8.686    
        8.452       8.051       7.683       7.478       7.265       7.022       6.776       6.579       6.423       6.314    
        6.238       6.163       6.086       5.999       5.902       5.795       5.676       5.556       5.449       5.301    
        5.107       4.893       4.655       4.386       4.141       3.824       3.458       3.200       3.044       2.888    
        2.691       2.486       2.304       2.124       1.931       1.692       1.267      0.7628      0.3863       0.000    
  46    10.00       9.922       9.850       9.759       9.662       9.513       9.326       9.149       8.926       8.665    
        8.326       7.958       7.663       7.406       7.189       6.948       6.702       6.549       6.433       6.333    
        6.263       6.194       6.101       5.998       5.902       5.808       5.711       5.604       5.497       5.360    
        5.180       4.956       4.692       4.388       4.047       3.707       3.441       3.265       3.092       2.912    
        2.686       2.472       2.291       2.147       1.939       1.605       1.136      0.7184      0.3650       0.000    
  47    10.00       9.939       9.872       9.777       9.608       9.429       9.268       9.116       8.916       8.590    
        8.225       7.883       7.599       7.383       7.151       6.884       6.672       6.536       6.444       6.362    
        6.287       6.206       6.114       6.012       5.918       5.837       5.751       5.646       5.522       5.387    
        5.227       5.028       4.687       4.284       3.964       3.714       3.483       3.332       3.173       2.923    
        2.654       2.429       2.261       2.143       1.883       1.485       1.054      0.6912      0.3548       0.000    
  48    10.00       9.946       9.875       9.733       9.562       9.413       9.242       9.088       8.875       8.530    
        8.133       7.823       7.593       7.336       7.065       6.826       6.667       6.535       6.446       6.385    
        6.310       6.212       6.111       6.023       5.947       5.879       5.797       5.680       5.534       5.376    
        5.211       4.982       4.630       4.300       4.020       3.772       3.556       3.385       3.180       2.880    
        2.596       2.415       2.275       2.055       1.707       1.351       1.006      0.6961      0.3745       0.000    
  49    10.00       9.943       9.842       9.714       9.574       9.401       9.229       9.056       8.792       8.427    
        8.085       7.795       7.518       7.274       7.065       6.840       6.635       6.515       6.457       6.398    
        6.327       6.217       6.105       6.032       5.970       5.916       5.824       5.682       5.516       5.365    
        5.192       4.913       4.615       4.394       4.138       3.847       3.585       3.379       3.142       2.823    
        2.593       2.435       2.226       1.894       1.585       1.294      0.9949      0.6960      0.3732       0.000    
  50    10.00       9.935       9.830       9.700       9.573       9.411       9.218       9.003       8.724       8.436    
        8.078       7.716       7.458       7.264       7.088       6.834       6.607       6.517       6.465       6.406    
        6.335       6.221       6.107       6.036       5.983       5.933       5.829       5.666       5.498       5.355    
        5.177       4.890       4.660       4.461       4.193       3.904       3.630       3.347       3.024       2.757    
        2.638       2.459       2.136       1.803       1.574       1.292       1.009      0.6816      0.3039       0.000    

 HEAD WILL BE SAVED ON UNIT   51 AT END OF TIME STEP   1, STRESS PERIOD    2

 DRAWDOWN WILL BE SAVED ON UNIT   52 AT END OF TIME STEP   1, STRESS PERIOD    2
1
  VOLUMETRIC BUDGET FOR ENTIRE MODEL AT END OF TIME STEP  1 IN STRESS PERIOD   2
  ------------------------------------------------------------------------------

     CUMULATIVE VOLUMES      L**3       RATES FOR THIS TIME STEP      L**3/T
     ------------------                 ------------------------

           IN:                                      IN:
           ---                                      ---
             STORAGE =         500.0031               STORAGE =         500.0031
       CONSTANT HEAD =        1194.1774         CONSTANT HEAD =         597.0887
               WELLS =           0.0000                 WELLS =           0.0000

            TOTAL IN =        1694.1804              TOTAL IN =        1097.0918

          OUT:                                     OUT:
          ----                                     ----
             STORAGE =       3.1122E-03               STORAGE =       3.1122E-03
       CONSTANT HEAD =        1194.1772         CONSTANT HEAD =         597.0886
               WELLS =         500.0000                 WELLS =         500.0000

           TOTAL OUT =        1694.1803             TOTAL OUT =        1097.0917

            IN - OUT =       1.2207E-04              IN - OUT =       1.2207E-04

 PERCENT DISCREPANCY =           0.00     PERCENT DISCREPANCY =           0.00






          TIME SUMMARY AT END OF TIME STEP   1 IN STRESS PERIOD    2
                    SECONDS     MINUTES      HOURS       DAYS        YEARS
                    -----------------------------------------------------------
   TIME STEP LENGTH  86400.      1440.0      24.000      1.0000     2.73785E-03
 STRESS PERIOD TIME  86400.      1440.0      24.000      1.0000     2.73785E-03
         TOTAL TIME 1.72800E+05  2880.0      48.000      2.0000     5.47570E-03
1
 
 SOLVING FOR HEAD 

 OUTPUT CONTROL FOR STRESS PERIOD    2   TIME STEP   2
    SAVE HEAD FOR ALL LAYERS
    SAVE DRAWDOWN FOR ALL LAYERS
    SAVE BUDGET
    PRINT HEAD FOR ALL LAYERS
    PRINT BUDGET
 UBDSV1 SAVING "         STORAGE" ON UNIT  53 AT TIME STEP  2, STRESS PERIOD   2
 UBDSV2 SAVING "   CONSTANT HEAD" ON UNIT  53 AT TIME STEP  2, STRESS PERIOD   2
 UBDSV1 SAVING "FLOW RIGHT FACE " ON UNIT  53 AT TIME STEP  2, STRESS PERIOD   2
 UBDSV1 SAVING "FLOW FRONT FACE " ON UNIT  53 AT TIME STEP  2, STRESS PERIOD   2
1
              HEAD IN LAYER   1 AT END OF TIME STEP   2 IN STRESS PERIOD    2
  ---------------------------------------------------------------------------

            1           2           3           4           5           6           7           8           9          10
           11          12          13          14          15          16          17          18          19          20
           21          22          23          24          25          26          27          28          29          30
           31          32          33          34          35          36          37          38          39          40
           41          42          43          44          45          46          47          48          49          50
 ........................................................................................................................
   1    10.00       9.960       9.902       9.836       9.772       9.700       9.631       9.563       9.478       9.394    
        9.330       9.266       9.201       9.138       9.035       8.911       8.773       8.665       8.608       8.542    
        8.463       8.399       8.336       8.261       8.161       7.964       7.741       7.584       7.430       7.285    
        7.096       6.795       6.409       5.982       5.540       5.070       4.605       4.218       3.713       3.165    
        2.715       2.285       1.807       1.408       1.161      0.9524      0.7868      0.6669      0.4476       0.000    
   2    10.00       9.959       9.906       9.840       9.775       9.711       9.643       9.554       9.461       9.392    
        9.336       9.282       9.227       9.149       9.031       8.902       8.772       8.665       8.607       8.533    
        8.454       8.406       8.355       8.277       8.151       7.958       7.756       7.594       7.438       7.297    
        7.086       6.770       6.366       5.880       5.408       4.954       4.551       4.178       3.664       3.134    
        2.683       2.198       1.763       1.449       1.217       1.037      0.8317      0.6492      0.3621       0.000    
   3    10.00       9.953       9.901       9.842       9.785       9.720       9.633       9.539       9.473       9.412    
        9.349       9.300       9.252       9.176       9.055       8.896       8.755       8.668       8.600       8.525    
        8.461       8.411       8.358       8.256       8.119       7.948       7.773       7.645       7.464       7.278    
        7.014       6.640       6.182       5.712       5.292       4.867       4.472       4.072       3.540       3.049    
        2.661       2.214       1.814       1.526       1.295       1.109      0.8655      0.5802      0.2630       0.000    
   4    10.00       9.953       9.902       9.845       9.781       9.705       9.616       9.544       9.487       9.424    
        9.369       9.327       9.274       9.188       9.071       8.902       8.756       8.674       8.598       8.531    
        8.462       8.401       8.335       8.228       8.094       7.941       7.782       7.626       7.467       7.256    
        6.925       6.434       5.949       5.592       5.239       4.799       4.324       3.855       3.430       3.057    
        2.693       2.277       1.900       1.639       1.379       1.142      0.8410      0.5220      0.2500       0.000    
   5    10.00       9.950       9.899       9.834       9.769       9.699       9.619       9.557       9.498       9.439    
        9.391       9.351       9.280       9.181       9.052       8.899       8.774       8.685       8.611       8.522    
        8.441       8.375       8.295       8.190       8.070       7.915       7.757       7.613       7.451       7.198    
        6.728       6.184       5.795       5.514       5.164       4.685       4.194       3.767       3.446       3.108    
        2.749       2.365       1.990       1.746       1.467       1.125      0.7657      0.4656      0.2342       0.000    
   6    10.00       9.943       9.882       9.829       9.769       9.693       9.625       9.572       9.510       9.454    
        9.409       9.360       9.272       9.161       9.049       8.920       8.795       8.693       8.596       8.495    
        8.413       8.337       8.268       8.173       8.021       7.870       7.741       7.595       7.372       6.994    
        6.480       5.989       5.665       5.419       5.102       4.627       4.136       3.771       3.499       3.191    
        2.860       2.520       2.135       1.808       1.438       1.061      0.6765      0.4019      0.2213       0.000    
   7    10.00       9.932       9.873       9.823       9.762       9.698       9.638       9.587       9.530       9.476    
        9.420       9.347       9.251       9.146       9.040       8.940       8.810       8.674       8.562       8.463    
        8.378       8.305       8.244       8.130       7.975       7.845       7.715       7.524       7.176       6.699    
        6.206       5.806       5.581       5.359       4.990       4.547       4.213       3.855       3.554       3.350    
        3.034       2.667       2.214       1.748       1.334      0.9219      0.5831      0.4050      0.2085       0.000    
   8    10.00       9.931       9.878       9.822       9.760       9.704       9.651       9.600       9.548       9.496    
        9.423       9.330       9.235       9.136       9.039       8.927       8.768       8.625       8.535       8.440    
        8.346       8.282       8.197       8.077       7.944       7.808       7.595       7.302       6.875       6.457    
        6.080       5.760       5.548       5.292       4.900       4.529       4.227       3.961       3.722       3.485    
        3.175       2.713       2.156       1.660       1.228      0.8635      0.6175      0.3969      0.1902       0.000    
   9    10.00       9.942       9.877       9.816       9.770       9.724       9.671       9.617       9.559       9.503    
        9.420       9.315       9.213       9.115       9.012       8.881       8.729       8.598       8.501       8.405    
        8.322       8.242       8.129       8.017       7.897       7.736       7.438       7.048       6.650       6.342    
        6.027       5.751       5.515       5.192       4.825       4.510       4.277       4.075       3.860       3.598    
        3.225       2.720       2.152       1.658       1.238      0.8830      0.6233      0.4005      0.2048       0.000    
  10    10.00       9.940       9.872       9.821       9.779       9.734       9.686       9.640       9.574       9.492    
        9.393       9.283       9.187       9.095       8.991       8.833       8.673       8.561       8.471       8.381    
        8.303       8.198       8.074       7.951       7.815       7.595       7.228       6.820       6.472       6.223    
        6.012       5.766       5.484       5.152       4.800       4.526       4.340       4.163       3.929       3.628    
        3.201       2.678       2.158       1.736       1.341      0.9723      0.6430      0.4254      0.2286       0.000    
  11    10.00       9.927       9.872       9.831       9.789       9.751       9.707       9.643       9.553       9.463    
        9.364       9.257       9.169       9.061       8.921       8.772       8.642       8.542       8.460       8.370    
        8.259       8.129       7.971       7.834       7.625       7.327       7.010       6.695       6.389       6.189    
        6.021       5.719       5.401       5.124       4.845       4.622       4.423       4.195       3.906       3.544    
        3.143       2.737       2.236       1.819       1.443       1.076      0.7227      0.4178      0.1752       0.000    
  12    10.00       9.930       9.879       9.835       9.800       9.760       9.710       9.622       9.518       9.432    
        9.341       9.232       9.125       8.999       8.878       8.743       8.618       8.531       8.444       8.327    
        8.157       7.973       7.794       7.612       7.344       7.115       6.911       6.608       6.340       6.163    
        5.965       5.695       5.416       5.150       4.934       4.719       4.462       4.184       3.833       3.467    
        3.127       2.759       2.275       1.864       1.509       1.125      0.7607      0.3943      0.1308       0.000    
  13    10.00       9.943       9.895       9.849       9.807       9.760       9.682       9.581       9.485       9.397    
        9.296       9.191       9.083       8.954       8.823       8.697       8.607       8.505       8.396       8.187    
        7.946       7.757       7.565       7.334       7.126       6.996       6.773       6.506       6.335       6.161    
        5.916       5.663       5.434       5.215       5.020       4.817       4.507       4.127       3.786       3.440    
        3.113       2.731       2.212       1.830       1.525       1.116      0.6997      0.3407      0.1043       0.000    
  14    10.00       9.956       9.915       9.866       9.809       9.732       9.631       9.531       9.445       9.351    
        9.248       9.151       9.031       8.900       8.786       8.678       8.551       8.429       8.232       7.937    
        7.713       7.533       7.295       7.110       6.997       6.872       6.657       6.473       6.316       6.134    
        5.905       5.689       5.509       5.297       5.078       4.867       4.518       4.100       3.747       3.389    
        3.053       2.579       2.085       1.784       1.438       1.071      0.7017      0.3159      8.9964E-02   0.000    
  15    10.00       9.965       9.922       9.868       9.800       9.690       9.568       9.481       9.401       9.309    
        9.230       9.132       8.982       8.836       8.735       8.581       8.430       8.304       8.023       7.712    
        7.513       7.290       7.088       6.999       6.920       6.785       6.599       6.422       6.284       6.124    
        5.918       5.742       5.574       5.378       5.151       4.889       4.482       4.021       3.649       3.322    
        2.961       2.483       2.092       1.715       1.304      0.9803      0.6277      0.2900      9.8102E-02   0.000    
  16    10.00       9.971       9.925       9.859       9.760       9.629       9.521       9.452       9.383       9.291    
        9.197       9.059       8.879       8.743       8.607       8.439       8.338       8.108       7.733       7.471    
        7.295       7.107       7.016       6.949       6.841       6.687       6.535       6.415       6.295       6.138    
        5.947       5.773       5.627       5.427       5.151       4.805       4.347       3.949       3.651       3.301    
        2.881       2.410       1.990       1.582       1.228      0.8691      0.5637      0.2932      0.1046       0.000    
  17    10.00       9.967       9.912       9.824       9.712       9.578       9.483       9.424       9.343       9.248    
        9.087       8.901       8.755       8.623       8.457       8.298       8.108       7.766       7.463       7.301    
        7.162       7.045       6.980       6.874       6.726       6.612       6.537       6.449       6.317       6.136    
        5.958       5.792       5.633       5.440       5.064       4.617       4.262       3.994       3.701       3.277    
        2.745       2.285       1.895       1.512       1.102      0.7256      0.4810      0.2665      0.1110       0.000    
  18    10.00       9.954       9.884       9.782       9.636       9.524       9.458       9.372       9.276       9.138    
        8.941       8.790       8.658       8.468       8.263       8.058       7.808       7.525       7.342       7.216    
        7.110       7.009       6.914       6.786       6.669       6.606       6.555       6.478       6.336       6.150    
        5.976       5.800       5.595       5.305       4.927       4.560       4.271       4.049       3.680       3.163    
        2.650       2.168       1.776       1.417       1.024      0.6698      0.4068      0.2229      0.1040       0.000    
  19    10.00       9.938       9.858       9.711       9.567       9.502       9.420       9.310       9.195       9.042    
        8.871       8.725       8.523       8.264       8.058       7.866       7.609       7.385       7.271       7.190    
        7.082       6.967       6.866       6.750       6.669       6.615       6.559       6.473       6.334       6.164    
        5.989       5.786       5.514       5.204       4.882       4.563       4.308       4.023       3.507       3.000    
        2.595       2.102       1.677       1.327      0.9408      0.6039      0.3662      0.2116      0.1059       0.000    
  20    10.00       9.920       9.797       9.645       9.540       9.467       9.377       9.261       9.126       8.986    
        8.811       8.601       8.336       8.106       7.930       7.708       7.483       7.368       7.273       7.169    
        7.063       6.948       6.830       6.735       6.674       6.617       6.544       6.448       6.319       6.154    
        5.976       5.761       5.475       5.175       4.870       4.586       4.312       3.874       3.334       2.904    
        2.457       1.981       1.605       1.255      0.8949      0.5427      0.3180      0.2134      0.1078       0.000    
  21    10.00       9.874       9.748       9.625       9.516       9.434       9.337       9.190       9.055       8.922    
        8.698       8.441       8.200       8.016       7.833       7.625       7.467       7.370       7.269       7.163    
        7.043       6.922       6.820       6.727       6.649       6.579       6.512       6.414       6.277       6.124    
        5.949       5.717       5.444       5.160       4.872       4.589       4.202       3.759       3.286       2.775    
        2.326       1.880       1.555       1.234      0.7771      0.4578      0.3257      0.2375      0.1141       0.000    
  22    10.00       9.856       9.708       9.589       9.497       9.400       9.260       9.116       8.998       8.825    
        8.594       8.330       8.126       7.976       7.779       7.591       7.461       7.367       7.272       7.154    
        7.027       6.913       6.795       6.676       6.580       6.521       6.459       6.343       6.218       6.088    
        5.898       5.672       5.434       5.148       4.858       4.578       4.167       3.713       3.158       2.654    
        2.267       1.862       1.502       1.027      0.6382      0.4583      0.3443      0.2288      9.0789E-02   0.000    
  23    10.00       9.825       9.682       9.583       9.484       9.341       9.185       9.074       8.927       8.750    
        8.518       8.285       8.128       7.939       7.730       7.569       7.463       7.380       7.278       7.146    
        7.015       6.891       6.749       6.569       6.390       6.349       6.335       6.262       6.162       6.030    
        5.859       5.632       5.394       5.146       4.853       4.547       4.155       3.589       3.005       2.591    
        2.220       1.761       1.246      0.8356      0.6213      0.4696      0.3432      0.2175      0.1012       0.000    
  24    10.00       9.802       9.699       9.586       9.447       9.292       9.169       9.049       8.906       8.703    
        8.490       8.309       8.135       7.907       7.687       7.563       7.477       7.393       7.276       7.146    
        7.022       6.886       6.678       6.272       5.585       5.893       6.129       6.160       6.097       5.974    
        5.797       5.584       5.365       5.101       4.816       4.504       4.018       3.422       2.925       2.486    
        2.037       1.555       1.101      0.7952      0.6169      0.4660      0.3347      0.2535      0.1395       0.000    
  25    10.00       9.828       9.719       9.584       9.438       9.299       9.174       9.059       8.884       8.682    
        8.503       8.327       8.114       7.863       7.693       7.581       7.487       7.391       7.283       7.166    
        7.038       6.909       6.553       5.596       2.921       5.237       5.906       6.076       6.040       5.905    
        5.739       5.553       5.315       5.008       4.713       4.350       3.858       3.287       2.835       2.361    
        1.844       1.391       1.022      0.7850      0.6408      0.5005      0.3655      0.2693      0.1757       0.000    
  26    10.00       9.853       9.751       9.606       9.455       9.333       9.202       9.057       8.877       8.718    
        8.561       8.322       8.051       7.839       7.716       7.616       7.504       7.379       7.265       7.167    
        7.073       6.944       6.652       6.050       5.285       5.741       6.049       6.100       6.014       5.840    
        5.652       5.481       5.225       4.931       4.651       4.259       3.624       3.105       2.730       2.155    
        1.598       1.225       1.009      0.8507      0.6976      0.5423      0.4018      0.2942      0.1756       0.000    
  27    10.00       9.886       9.762       9.639       9.504       9.362       9.232       9.090       8.927       8.771    
        8.556       8.272       8.036       7.862       7.753       7.637       7.489       7.354       7.261       7.183    
        7.106       6.980       6.772       6.492       6.162       6.155       6.189       6.129       5.981       5.774    
        5.587       5.414       5.178       4.887       4.523       3.938       3.360       2.963       2.398       1.843    
        1.449       1.207       1.051      0.9166      0.7753      0.5963      0.4291      0.3211      0.2158       0.000    
  28    10.00       9.897       9.792       9.674       9.552       9.417       9.281       9.137       8.980       8.798    
        8.530       8.269       8.060       7.890       7.775       7.650       7.521       7.387       7.268       7.190    
        7.118       7.022       6.888       6.699       6.495       6.353       6.257       6.139       5.962       5.742    
        5.526       5.341       5.084       4.716       4.224       3.645       3.175       2.649       2.102       1.738    
        1.454       1.256       1.101      0.9678      0.8226      0.6513      0.4858      0.3649      0.2224       0.000    
  29    10.00       9.902       9.803       9.714       9.596       9.472       9.341       9.194       9.026       8.778    
        8.512       8.280       8.076       7.932       7.791       7.654       7.532       7.420       7.306       7.205    
        7.123       7.035       6.932       6.797       6.608       6.442       6.290       6.141       5.931       5.651    
        5.421       5.161       4.893       4.438       3.902       3.416       2.950       2.432       2.022       1.762    
        1.531       1.313       1.144       1.014      0.8726      0.6970      0.5266      0.3853      0.2246       0.000    
  30    10.00       9.910       9.828       9.750       9.647       9.533       9.414       9.249       9.036       8.779    
        8.502       8.261       8.089       7.941       7.796       7.663       7.555       7.458       7.346       7.227    
        7.127       7.036       6.934       6.816       6.625       6.433       6.278       6.109       5.853       5.551    
        5.241       4.899       4.588       4.160       3.758       3.317       2.845       2.379       2.083       1.847    
        1.586       1.372       1.209       1.054      0.8947      0.7393      0.5607      0.4013      0.2424       0.000    
  31    10.00       9.925       9.854       9.781       9.705       9.614       9.483       9.285       9.034       8.766    
        8.496       8.269       8.101       7.944       7.813       7.683       7.570       7.489       7.363       7.239    
        7.132       7.020       6.908       6.740       6.555       6.409       6.267       6.073       5.769       5.413    
        5.010       4.655       4.370       4.068       3.685       3.238       2.796       2.419       2.183       1.970    
        1.699       1.452       1.262       1.098      0.9398      0.7752      0.5964      0.4284      0.2357       0.000    
  32    10.00       9.937       9.882       9.818       9.744       9.661       9.528       9.301       9.062       8.815    
        8.524       8.285       8.113       7.962       7.821       7.705       7.603       7.491       7.377       7.253    
        7.113       6.986       6.831       6.645       6.512       6.418       6.265       5.986       5.597       5.193    
        4.834       4.542       4.280       4.009       3.651       3.256       2.888       2.560       2.307       2.067    
        1.814       1.557       1.354       1.163      0.9820      0.8334      0.6504      0.4284      0.2127       0.000    
  33    10.00       9.945       9.900       9.848       9.776       9.680       9.509       9.288       9.088       8.854    
        8.566       8.323       8.139       7.966       7.828       7.730       7.632       7.512       7.382       7.236    
        7.088       6.933       6.745       6.596       6.502       6.405       6.138       5.777       5.421       5.092    
        4.778       4.537       4.290       3.967       3.638       3.286       2.974       2.710       2.446       2.182    
        1.947       1.703       1.481       1.280       1.080      0.9037      0.6982      0.4367      0.2057       0.000    
  34    10.00       9.950       9.920       9.874       9.784       9.649       9.483       9.319       9.111       8.854    
        8.594       8.351       8.148       7.968       7.848       7.768       7.656       7.522       7.361       7.211    
        7.054       6.861       6.687       6.561       6.457       6.275       5.970       5.679       5.353       5.008    
        4.755       4.563       4.333       4.020       3.695       3.379       3.093       2.855       2.586       2.322    
        2.098       1.874       1.639       1.434       1.221       1.014      0.7532      0.4837      0.2550       0.000    
  35    10.00       9.959       9.924       9.865       9.751       9.608       9.486       9.345       9.150       8.869    
        8.588       8.355       8.144       7.992       7.892       7.799       7.666       7.505       7.336       7.162    
        6.970       6.781       6.605       6.482       6.363       6.195       5.911       5.587       5.251       4.941    
        4.763       4.572       4.335       4.098       3.825       3.495       3.211       3.020       2.749       2.456    
        2.246       2.023       1.799       1.598       1.361       1.130      0.8675      0.5789      0.2893       0.000    
  36    10.00       9.956       9.906       9.839       9.725       9.589       9.478       9.344       9.145       8.878    
        8.580       8.324       8.166       8.049       7.948       7.820       7.652       7.483       7.284       7.032    
        6.831       6.672       6.526       6.416       6.309       6.114       5.810       5.490       5.160       4.903    
        4.743       4.581       4.368       4.149       3.918       3.620       3.339       3.132       2.895       2.581    
        2.346       2.120       1.892       1.726       1.498       1.242      0.9802      0.6789      0.3453       0.000    
  37    10.00       9.941       9.885       9.812       9.696       9.571       9.446       9.314       9.130       8.839    
        8.535       8.326       8.229       8.112       7.972       7.832       7.625       7.407       7.134       6.871    
        6.741       6.617       6.475       6.352       6.220       5.981       5.711       5.374       5.099       4.923    
        4.770       4.598       4.382       4.194       3.955       3.671       3.451       3.251       2.989       2.676    
        2.395       2.175       1.994       1.809       1.592       1.355       1.104      0.7661      0.4150       0.000    
  38    10.00       9.934       9.861       9.782       9.675       9.551       9.410       9.272       9.074       8.803    
        8.569       8.402       8.277       8.163       7.995       7.763       7.514       7.227       6.929       6.776    
        6.676       6.515       6.365       6.266       6.108       5.876       5.556       5.267       5.120       4.982    
        4.811       4.620       4.417       4.227       3.994       3.736       3.540       3.336       3.024       2.698    
        2.454       2.251       2.067       1.882       1.689       1.461       1.201      0.8765      0.4547       0.000    
  39    10.00       9.916       9.841       9.762       9.656       9.516       9.364       9.217       9.035       8.815    
        8.631       8.504       8.358       8.185       7.912       7.600       7.283       6.974       6.802       6.714    
        6.559       6.381       6.274       6.179       6.027       5.760       5.463       5.291       5.164       5.018    
        4.834       4.655       4.450       4.248       4.051       3.840       3.614       3.377       3.057       2.736    
        2.480       2.276       2.133       1.986       1.777       1.543       1.282      0.9286      0.4547       0.000    
  40    10.00       9.901       9.828       9.748       9.640       9.493       9.335       9.186       9.032       8.847    
        8.693       8.580       8.383       8.086       7.730       7.378       7.061       6.859       6.753       6.630    
        6.454       6.305       6.214       6.088       5.913       5.698       5.513       5.345       5.196       5.057    
        4.887       4.689       4.483       4.294       4.114       3.900       3.657       3.420       3.072       2.722    
        2.491       2.322       2.173       2.047       1.835       1.575       1.335      0.9648      0.4763       0.000    
  41    10.00       9.908       9.822       9.733       9.612       9.478       9.340       9.205       9.056       8.890    
        8.742       8.595       8.313       7.927       7.534       7.218       6.976       6.809       6.697       6.552    
        6.371       6.246       6.136       6.003       5.855       5.707       5.574       5.413       5.235       5.075    
        4.922       4.735       4.527       4.356       4.169       3.960       3.712       3.382       2.997       2.728    
        2.541       2.365       2.228       2.069       1.846       1.588       1.376       1.024      0.5243       0.000    
  42    10.00       9.910       9.814       9.731       9.626       9.501       9.362       9.211       9.076       8.946    
        8.762       8.487       8.130       7.732       7.380       7.140       6.931       6.776       6.641       6.466    
        6.301       6.183       6.069       5.977       5.856       5.750       5.627       5.442       5.251       5.109    
        4.977       4.774       4.552       4.392       4.232       3.998       3.679       3.284       2.943       2.739    
        2.589       2.440       2.271       2.064       1.832       1.625       1.411       1.066      0.5485       0.000    
  43    10.00       9.911       9.822       9.737       9.653       9.541       9.401       9.251       9.102       8.910    
        8.635       8.317       7.953       7.571       7.303       7.103       6.905       6.739       6.575       6.401    
        6.249       6.138       6.057       5.987       5.882       5.769       5.647       5.465       5.296       5.181    
        5.013       4.791       4.583       4.425       4.241       3.955       3.581       3.200       2.963       2.802    
        2.644       2.483       2.276       2.053       1.842       1.641       1.449       1.063      0.4788       0.000    
  44    10.00       9.905       9.824       9.750       9.657       9.570       9.451       9.266       9.061       8.790    
        8.510       8.176       7.779       7.503       7.297       7.075       6.859       6.667       6.488       6.334    
        6.226       6.140       6.066       5.994       5.903       5.787       5.644       5.502       5.371       5.227    
        5.065       4.865       4.630       4.407       4.191       3.899       3.509       3.181       2.991       2.835    
        2.684       2.506       2.299       2.100       1.879       1.656       1.405      0.9101      0.4022       0.000    
  45    10.00       9.905       9.838       9.753       9.665       9.587       9.410       9.197       8.954       8.686    
        8.452       8.051       7.683       7.478       7.265       7.022       6.776       6.579       6.423       6.314    
        6.238       6.163       6.086       5.999       5.902       5.795       5.676       5.556       5.449       5.301    
        5.107       4.893       4.655       4.386       4.141       3.824       3.458       3.200       3.044       2.888    
        2.691       2.486       2.304       2.124       1.931       1.692       1.267      0.7628      0.3863       0.000    
  46    10.00       9.922       9.850       9.759       9.662       9.513       9.326       9.149       8.926       8.665    
        8.326       7.958       7.663       7.406       7.189       6.948       6.702       6.549       6.433       6.333    
        6.263       6.194       6.101       5.998       5.902       5.808       5.711       5.604       5.497       5.360    
        5.180       4.956       4.692       4.388       4.047       3.707       3.441       3.265       3.092       2.912    
        2.686       2.472       2.291       2.147       1.939       1.605       1.136      0.7184      0.3650       0.000    
  47    10.00       9.939       9.872       9.777       9.608       9.429       9.268       9.116       8.916       8.590    
        8.225       7.883       7.599       7.383       7.151       6.884       6.672       6.536       6.444       6.362    
        6.287       6.206       6.114       6.012       5.918       5.837       5.751       5.646       5.522       5.387    
        5.227       5.028       4.687       4.284       3.964       3.714       3.483       3.332       3.173       2.923    
        2.654       2.429       2.261       2.143       1.883       1.485       1.054      0.6912      0.3548       0.000    
  48    10.00       9.946       9.875       9.733       9.562       9.413       9.242       9.088       8.875       8.530    
        8.133       7.823       7.593       7.336       7.065       6.826       6.667       6.535       6.446       6.385    
        6.310       6.212       6.111       6.023       5.947       5.879       5.797       5.680       5.534       5.376    
        5.211       4.982       4.630       4.300       4.020       3.772       3.556       3.385       3.180       2.880    
        2.596       2.415       2.275       2.055       1.707       1.351       1.006      0.6961      0.3745       0.000    
  49    10.00       9.943       9.842       9.714       9.574       9.401       9.229       9.056       8.792       8.427    
        8.085       7.795       7.518       7.274       7.065       6.840       6.635       6.515       6.457       6.398    
        6.327       6.217       6.105       6.032       5.970       5.916       5.824       5.682       5.516       5.365    
        5.192       4.913       4.615       4.394       4.138       3.847       3.585       3.379       3.142       2.823    
        2.593       2.435       2.226       1.894       1.585       1.294      0.9949      0.6960      0.3732       0.000    
  50    10.00       9.935       9.830       9.700       9.573       9.411       9.218       9.003       8.724       8.436    
        8.078       7.716       7.458       7.264       7.088       6.834       6.607       6.517       6.465       6.406    
        6.335       6.221       6.107       6.036       5.983       5.933       5.829       5.666       5.498       5.355    
        5.177       4.890       4.660       4.461       4.193       3.904       3.630       3.347       3.024       2.757    
        2.638       2.459       2.136       1.803       1.574       1.292       1.009      0.6816      0.3039       0.000    

 HEAD WILL BE SAVED ON UNIT   51 AT END OF TIME STEP   2, STRESS PERIOD    2

 DRAWDOWN WILL BE SAVED ON UNIT   52 AT END OF TIME STEP   2, STRESS PERIOD    2
1
  VOLUMETRIC BUDGET FOR ENTIRE MODEL AT END OF TIME STEP  2 IN STRESS PERIOD   2
  ------------------------------------------------------------------------------

     CUMULATIVE VOLUMES      L**3       RATES FOR THIS TIME STEP      L**3/T
     ------------------                 ------------------------

           IN:                                      IN:
           ---                                      ---
             STORAGE =        1000.0050               STORAGE =         500.0019
       CONSTANT HEAD =        1791.2661         CONSTANT HEAD =         597.0887
               WELLS =           0.0000                 WELLS =           0.0000

            TOTAL IN =        2791.2710              TOTAL IN =        1097.0906

          OUT:                                     OUT:
          ----                                     ----
             STORAGE =       5.4117E-03               STORAGE =       2.2995E-03
       CONSTANT HEAD =        1791.2659         CONSTANT HEAD =         597.0886
               WELLS =        1000.0000                 WELLS =         500.0000

           TOTAL OUT =        2791.2712             TOTAL OUT =        1097.0909

            IN - OUT =      -2.4414E-04              IN - OUT =      -3.6621E-04

 PERCENT DISCREPANCY =           0.00     PERCENT DISCREPANCY =           0.00






          TIME SUMMARY AT END OF TIME STEP   2 IN STRESS PERIOD    2
                    SECONDS     MINUTES      HOURS       DAYS        YEARS
                    -----------------------------------------------------------
   TIME STEP LENGTH  86400.      1440.0      24.000      1.0000     2.73785E-03
 STRESS PERIOD TIME 1.72800E+05  2880.0      48.000      2.0000     5.47570E-03
         TOTAL TIME 2.59200E+05  4320.0      72.000      3.0000     8.21355E-03
1
 
 SOLVING FOR HEAD 

 OUTPUT CONTROL FOR STRESS PERIOD    2   TIME STEP   3
    SAVE HEAD FOR ALL LAYERS
    SAVE DRAWDOWN FOR ALL LAYERS
    SAVE BUDGET
    PRINT HEAD FOR ALL LAYERS
    PRINT BUDGET
 UBDSV1 SAVING "         STORAGE" ON UNIT  53 AT TIME STEP  3, STRESS PERIOD   2
 UBDSV2 SAVING "   CONSTANT HEAD" ON UNIT  53 AT TIME STEP  3, STRESS PERIOD   2
 UBDSV1 SAVING "FLOW RIGHT FACE " ON UNIT  53 AT TIME STEP  3, STRESS PERIOD   2
 UBDSV1 SAVING "FLOW FRONT FACE " ON UNIT  53 AT TIME STEP  3, STRESS PERIOD   2
1
              HEAD IN LAYER   1 AT END OF TIME STEP   3 IN STRESS PERIOD    2
  ---------------------------------------------------------------------------

            1           2           3           4           5           6           7           8           9          10
           11          12          13          14          15          16          17          18          19          20
           21          22          23          24          25          26          27          28          29          30
           31          32          33          34          35          36          37          38          39          40
           41          42          43          44          45          46          47          48          49          50
 ........................................................................................................................
   1    10.00       9.960       9.902       9.836       9.772       9.700       9.631       9.563       9.478       9.394    
        9.330       9.266       9.201       9.138       9.035       8.911       8.773       8.665       8.608       8.542    
        8.463       8.399       8.336       8.261       8.161       7.964       7.741       7.584       7.430       7.285    
        7.096       6.795       6.409       5.982       5.540       5.070       4.605       4.218       3.713       3.165    
        2.715       2.285       1.807       1.408       1.161      0.9524      0.7868      0.6669      0.4476       0.000    
   2    10.00       9.959       9.906       9.840       9.775       9.711       9.643       9.554       9.461       9.392    
        9.336       9.282       9.227       9.149       9.031       8.902       8.772       8.665       8.607       8.533    
        8.454       8.406       8.355       8.277       8.151       7.958       7.756       7.594       7.438       7.297    
        7.086       6.770       6.366       5.880       5.408       4.954       4.551       4.178       3.664       3.134    
        2.683       2.198       1.763       1.449       1.217       1.037      0.8317      0.6492      0.3621       0.000    
   3    10.00       9.953       9.901       9.842       9.785       9.720       9.633       9.539       9.473       9.412    
        9.349       9.300       9.252       9.176       9.055       8.896       8.755       8.668       8.600       8.525    
        8.461       8.411       8.358       8.256       8.119       7.948       7.773       7.645       7.464       7.278    
        7.014       6.640       6.182       5.712       5.292       4.867       4.472       4.072       3.540       3.049    
        2.661       2.214       1.814       1.526       1.295       1.109      0.8655      0.5802      0.2630       0.000    
   4    10.00       9.953       9.902       9.845       9.781       9.705       9.616       9.544       9.487       9.424    
        9.369       9.327       9.274       9.188       9.071       8.902       8.756       8.674       8.598       8.531    
        8.462       8.401       8.335       8.228       8.094       7.941       7.782       7.626       7.467       7.256    
        6.925       6.434       5.949       5.592       5.239       4.799       4.324       3.855       3.430       3.057    
        2.693       2.277       1.900       1.639       1.379       1.142      0.8410      0.5220      0.2500       0.000    
   5    10.00       9.950       9.899       9.834       9.769       9.699       9.619       9.557       9.498       9.439    
        9.391       9.351       9.280       9.181       9.052       8.899       8.774       8.685       8.611       8.522    
        8.441       8.375       8.295       8.190       8.070       7.915       7.757       7.613       7.451       7.198    
        6.728       6.184       5.795       5.514       5.164       4.685       4.194       3.767       3.446       3.108    
        2.749       2.365       1.990       1.746       1.467       1.125      0.7657      0.4656      0.2342       0.000    
   6    10.00       9.943       9.882       9.829       9.769       9.693       9.625       9.572       9.510       9.454    
        9.409       9.360       9.272       9.161       9.049       8.920       8.795       8.693       8.596       8.495    
        8.413       8.337       8.268       8.173       8.021       7.870       7.741       7.595       7.372       6.994    
        6.480       5.989       5.665       5.419       5.102       4.627       4.136       3.771       3.499       3.191    
        2.860       2.520       2.135       1.808       1.438       1.061      0.6765      0.4019      0.2213       0.000    
   7    10.00       9.932       9.873       9.823       9.762       9.698       9.638       9.587       9.530       9.476    
        9.420       9.347       9.251       9.146       9.040       8.940       8.810       8.674       8.562       8.463    
        8.378       8.305       8.244       8.130       7.975       7.845       7.715       7.524       7.176       6.699    
        6.206       5.806       5.581       5.359       4.990       4.547       4.213       3.855       3.554       3.350    
        3.034       2.667       2.214       1.748       1.334      0.9219      0.5831      0.4050      0.2085       0.000    
   8    10.00       9.931       9.878       9.822       9.760       9.704       9.651       9.600       9.548       9.496    
        9.423       9.330       9.235       9.136       9.039       8.927       8.768       8.625       8.535       8.440    
        8.346       8.282       8.197       8.077       7.944       7.808       7.595       7.302       6.875       6.457    
        6.080       5.760       5.548       5.292       4.900       4.529       4.227       3.961       3.722       3.485    
        3.175       2.713       2.156       1.660       1.228      0.8635      0.6175      0.3969      0.1902       0.000    
   9    10.00       9.942       9.877       9.816       9.770       9.724       9.671       9.617       9.559       9.503    
        9.420       9.315       9.213       9.115       9.012       8.881       8.729       8.598       8.501       8.405    
        8.322       8.242       8.129       8.017       7.897       7.736       7.438       7.048       6.650       6.342    
        6.027       5.751       5.515       5.192       4.824       4.510       4.277       4.075       3.860       3.598    
        3.225       2.720       2.152       1.658       1.238      0.8830      0.6233      0.4005      0.2048       0.000    
  10    10.00       9.940       9.872       9.821       9.779       9.734       9.686       9.640       9.574       9.492    
        9.393       9.283       9.187       9.095       8.991       8.833       8.673       8.561       8.471       8.381    
        8.303       8.198       8.073       7.951       7.815       7.595       7.228       6.820       6.472       6.222    
        6.012       5.766       5.484       5.152       4.800       4.526       4.340       4.163       3.929       3.628    
        3.201       2.678       2.158       1.736       1.341      0.9723      0.6430      0.4254      0.2286       0.000    
  11    10.00       9.927       9.872       9.831       9.789       9.751       9.707       9.643       9.553       9.463    
        9.364       9.257       9.169       9.061       8.921       8.772       8.642       8.542       8.460       8.370    
        8.259       8.129       7.971       7.834       7.624       7.327       7.010       6.694       6.389       6.189    
        6.020       5.718       5.401       5.124       4.845       4.621       4.423       4.195       3.906       3.544    
        3.143       2.737       2.236       1.819       1.443       1.076      0.7227      0.4178      0.1752       0.000    
  12    10.00       9.930       9.879       9.835       9.800       9.760       9.710       9.622       9.518       9.432    
        9.341       9.232       9.125       8.999       8.878       8.743       8.618       8.531       8.444       8.327    
        8.157       7.973       7.794       7.611       7.344       7.114       6.910       6.607       6.339       6.162    
        5.965       5.695       5.416       5.149       4.934       4.719       4.462       4.184       3.833       3.467    
        3.127       2.759       2.275       1.864       1.509       1.125      0.7607      0.3943      0.1308       0.000    
  13    10.00       9.943       9.895       9.849       9.807       9.760       9.682       9.581       9.485       9.397    
        9.296       9.191       9.083       8.954       8.823       8.697       8.607       8.505       8.396       8.186    
        7.945       7.756       7.564       7.332       7.124       6.994       6.771       6.504       6.334       6.160    
        5.915       5.662       5.434       5.214       5.020       4.817       4.507       4.127       3.786       3.440    
        3.113       2.731       2.212       1.830       1.525       1.116      0.6997      0.3407      0.1043       0.000    
  14    10.00       9.956       9.915       9.866       9.809       9.732       9.631       9.531       9.445       9.351    
        9.248       9.151       9.031       8.900       8.786       8.678       8.551       8.429       8.231       7.936    
        7.712       7.532       7.292       7.106       6.993       6.868       6.653       6.470       6.313       6.132    
        5.903       5.688       5.508       5.297       5.078       4.867       4.518       4.100       3.747       3.389    
        3.053       2.579       2.085       1.784       1.438       1.071      0.7017      0.3159      8.9964E-02   0.000    
  15    10.00       9.965       9.922       9.868       9.800       9.690       9.568       9.481       9.401       9.309    
        9.230       9.132       8.982       8.836       8.735       8.581       8.429       8.304       8.022       7.710    
        7.511       7.286       7.082       6.993       6.914       6.778       6.593       6.416       6.279       6.120    
        5.916       5.740       5.573       5.377       5.151       4.889       4.482       4.021       3.649       3.322    
        2.961       2.483       2.092       1.715       1.304      0.9803      0.6277      0.2900      9.8102E-02   0.000    
  16    10.00       9.971       9.925       9.859       9.760       9.629       9.521       9.452       9.383       9.291    
        9.197       9.059       8.879       8.743       8.607       8.439       8.338       8.108       7.731       7.468    
        7.290       7.099       7.007       6.940       6.831       6.675       6.523       6.405       6.288       6.133    
        5.944       5.771       5.625       5.426       5.150       4.805       4.347       3.949       3.651       3.300    
        2.881       2.410       1.990       1.582       1.228      0.8691      0.5637      0.2932      0.1046       0.000    
  17    10.00       9.967       9.912       9.824       9.712       9.578       9.483       9.424       9.343       9.248    
        9.087       8.901       8.755       8.623       8.457       8.297       8.107       7.764       7.459       7.294    
        7.153       7.033       6.967       6.860       6.708       6.592       6.520       6.435       6.308       6.130    
        5.954       5.790       5.632       5.439       5.064       4.617       4.262       3.994       3.701       3.277    
        2.745       2.285       1.895       1.512       1.102      0.7256      0.4810      0.2665      0.1110       0.000    
  18    10.00       9.954       9.884       9.782       9.636       9.524       9.458       9.372       9.276       9.138    
        8.941       8.790       8.658       8.468       8.262       8.057       7.806       7.520       7.334       7.205    
        7.095       6.991       6.893       6.762       6.643       6.581       6.533       6.460       6.324       6.142    
        5.971       5.798       5.594       5.305       4.927       4.560       4.271       4.049       3.680       3.163    
        2.650       2.168       1.776       1.417       1.024      0.6698      0.4068      0.2229      0.1040       0.000    
  19    10.00       9.938       9.858       9.711       9.567       9.502       9.420       9.310       9.195       9.042    
        8.871       8.725       8.523       8.263       8.057       7.864       7.605       7.376       7.258       7.174    
        7.061       6.941       6.835       6.716       6.635       6.584       6.533       6.451       6.319       6.154    
        5.983       5.783       5.512       5.204       4.881       4.563       4.308       4.023       3.507       3.000    
        2.595       2.102       1.677       1.327      0.9408      0.6039      0.3662      0.2116      0.1059       0.000    
  20    10.00       9.920       9.797       9.645       9.540       9.467       9.377       9.261       9.126       8.986    
        8.811       8.600       8.336       8.105       7.929       7.704       7.475       7.357       7.258       7.148    
        7.035       6.913       6.788       6.691       6.631       6.577       6.508       6.420       6.298       6.141    
        5.969       5.757       5.473       5.174       4.870       4.586       4.312       3.874       3.334       2.904    
        2.457       1.981       1.605       1.255      0.8949      0.5427      0.3180      0.2134      0.1078       0.000    
  21    10.00       9.874       9.748       9.625       9.516       9.434       9.337       9.190       9.055       8.922    
        8.698       8.440       8.199       8.015       7.830       7.620       7.458       7.358       7.251       7.137    
        7.006       6.874       6.764       6.668       6.589       6.521       6.462       6.376       6.249       6.107    
        5.939       5.712       5.441       5.159       4.871       4.589       4.202       3.759       3.286       2.775    
        2.326       1.880       1.555       1.234      0.7771      0.4578      0.3257      0.2375      0.1141       0.000    
  22    10.00       9.856       9.708       9.589       9.497       9.400       9.260       9.116       8.998       8.825    
        8.593       8.329       8.125       7.974       7.776       7.585       7.451       7.352       7.250       7.121    
        6.977       6.848       6.716       6.587       6.489       6.436       6.387       6.290       6.181       6.064    
        5.885       5.665       5.431       5.147       4.858       4.577       4.167       3.713       3.158       2.654    
        2.267       1.862       1.502       1.027      0.6382      0.4583      0.3443      0.2288      9.0789E-02   0.000    
  23    10.00       9.825       9.682       9.583       9.484       9.341       9.185       9.074       8.927       8.750    
        8.518       8.285       8.127       7.938       7.726       7.562       7.451       7.363       7.253       7.105    
        6.953       6.808       6.641       6.432       6.235       6.204       6.226       6.185       6.113       6.001    
        5.842       5.625       5.390       5.144       4.853       4.546       4.155       3.589       3.005       2.591    
        2.220       1.761       1.246      0.8356      0.6213      0.4696      0.3432      0.2175      0.1012       0.000    
  24    10.00       9.802       9.699       9.586       9.447       9.292       9.169       9.049       8.906       8.703    
        8.490       8.309       8.134       7.905       7.682       7.554       7.465       7.376       7.247       7.100    
        6.954       6.791       6.541       6.061       5.283       5.628       5.951       6.056       6.035       5.938    
        5.779       5.576       5.361       5.099       4.816       4.504       4.018       3.422       2.925       2.486    
        2.037       1.555       1.101      0.7952      0.6169      0.4660      0.3347      0.2535      0.1395       0.000    
  25    10.00       9.828       9.719       9.584       9.438       9.299       9.174       9.059       8.884       8.681    
        8.503       8.327       8.113       7.861       7.688       7.573       7.476       7.373       7.255       7.122    
        6.970       6.813       6.375       5.279       2.456       4.882       5.676       5.943       5.969       5.869    
        5.721       5.544       5.312       5.007       4.713       4.350       3.858       3.287       2.835       2.361    
        1.844       1.391       1.022      0.7850      0.6408      0.5005      0.3655      0.2693      0.1757       0.000    
  26    10.00       9.853       9.751       9.606       9.455       9.333       9.202       9.057       8.877       8.717    
        8.561       8.322       8.050       7.837       7.712       7.610       7.494       7.361       7.237       7.124    
        7.012       6.853       6.487       5.768       4.917       5.428       5.844       5.978       5.951       5.811    
        5.639       5.473       5.222       4.929       4.650       4.259       3.624       3.105       2.730       2.155    
        1.598       1.225       1.009      0.8507      0.6976      0.5423      0.4018      0.2942      0.1756       0.000    
  27    10.00       9.886       9.762       9.639       9.504       9.362       9.232       9.090       8.927       8.771    
        8.556       8.271       8.035       7.860       7.750       7.632       7.479       7.335       7.234       7.147    
        7.056       6.902       6.645       6.303       5.920       5.947       6.041       6.039       5.936       5.753    
        5.576       5.409       5.175       4.886       4.523       3.938       3.360       2.963       2.398       1.843    
        1.449       1.207       1.051      0.9166      0.7753      0.5963      0.4291      0.3211      0.2158       0.000    
  28    10.00       9.897       9.792       9.674       9.552       9.417       9.281       9.137       8.980       8.798    
        8.530       8.268       8.059       7.889       7.772       7.646       7.513       7.373       7.244       7.158    
        7.077       6.966       6.806       6.584       6.361       6.227       6.161       6.080       5.929       5.727    
        5.518       5.337       5.082       4.716       4.224       3.645       3.175       2.649       2.102       1.738    
        1.454       1.256       1.101      0.9678      0.8226      0.6513      0.4858      0.3649      0.2224       0.000    
  29    10.00       9.902       9.803       9.714       9.596       9.472       9.341       9.194       9.026       8.778    
        8.512       8.280       8.075       7.931       7.789       7.650       7.526       7.410       7.289       7.180    
        7.091       6.994       6.880       6.736       6.535       6.374       6.239       6.106       5.913       5.643    
        5.417       5.159       4.892       4.437       3.902       3.416       2.950       2.432       2.022       1.762    
        1.531       1.313       1.144       1.014      0.8726      0.6970      0.5266      0.3853      0.2246       0.000    
  30    10.00       9.910       9.828       9.750       9.647       9.533       9.414       9.249       9.036       8.779    
        8.502       8.261       8.089       7.940       7.795       7.660       7.550       7.451       7.335       7.210    
        7.105       7.009       6.901       6.781       6.593       6.403       6.256       6.093       5.845       5.548    
        5.239       4.899       4.588       4.160       3.758       3.317       2.845       2.379       2.083       1.847    
        1.586       1.372       1.209       1.054      0.8947      0.7393      0.5607      0.4013      0.2424       0.000    
  31    10.00       9.925       9.854       9.781       9.705       9.614       9.483       9.285       9.034       8.766    
        8.496       8.269       8.100       7.943       7.812       7.681       7.567       7.484       7.357       7.229    
        7.119       7.005       6.891       6.725       6.544       6.398       6.257       6.066       5.765       5.411    
        5.009       4.655       4.370       4.068       3.685       3.238       2.796       2.419       2.183       1.970    
        1.699       1.452       1.262       1.098      0.9398      0.7752      0.5964      0.4284      0.2357       0.000    
  32    10.00       9.937       9.882       9.818       9.744       9.661       9.528       9.301       9.062       8.815    
        8.524       8.285       8.113       7.961       7.820       7.704       7.601       7.488       7.373       7.247    
        7.106       6.977       6.823       6.639       6.507       6.413       6.260       5.983       5.596       5.193    
        4.833       4.542       4.280       4.009       3.651       3.256       2.888       2.560       2.307       2.067    
        1.814       1.557       1.354       1.163      0.9820      0.8334      0.6504      0.4284      0.2127       0.000    
  33    10.00       9.945       9.900       9.848       9.776       9.680       9.509       9.288       9.088       8.854    
        8.566       8.322       8.139       7.966       7.828       7.729       7.631       7.511       7.380       7.233    
        7.084       6.929       6.742       6.593       6.499       6.402       6.136       5.776       5.420       5.092    
        4.778       4.537       4.290       3.967       3.638       3.286       2.974       2.710       2.446       2.182    
        1.947       1.703       1.481       1.280       1.080      0.9037      0.6982      0.4367      0.2057       0.000    
  34    10.00       9.950       9.920       9.874       9.784       9.649       9.483       9.319       9.111       8.854    
        8.594       8.351       8.147       7.968       7.847       7.768       7.656       7.521       7.360       7.210    
        7.052       6.859       6.686       6.560       6.455       6.274       5.969       5.679       5.353       5.008    
        4.755       4.563       4.333       4.020       3.695       3.379       3.093       2.855       2.586       2.322    
        2.098       1.874       1.639       1.434       1.221       1.014      0.7532      0.4837      0.2550       0.000    
  35    10.00       9.959       9.924       9.865       9.751       9.608       9.486       9.345       9.150       8.869    
        8.588       8.355       8.144       7.992       7.892       7.798       7.666       7.505       7.335       7.162    
        6.969       6.780       6.605       6.482       6.363       6.195       5.911       5.587       5.251       4.941    
        4.763       4.572       4.335       4.098       3.825       3.495       3.211       3.020       2.749       2.456    
        2.246       2.023       1.799       1.598       1.361       1.130      0.8675      0.5789      0.2893       0.000    
  36    10.00       9.956       9.906       9.839       9.725       9.589       9.478       9.344       9.145       8.878    
        8.580       8.324       8.166       8.049       7.948       7.820       7.652       7.483       7.284       7.032    
        6.831       6.672       6.526       6.416       6.309       6.114       5.810       5.490       5.160       4.903    
        4.743       4.581       4.368       4.149       3.918       3.620       3.339       3.132       2.895       2.581    
        2.346       2.120       1.892       1.726       1.498       1.242      0.9802      0.6789      0.3453       0.000    
  37    10.00       9.941       9.885       9.812       9.696       9.571       9.446       9.314       9.130       8.839    
        8.535       8.326       8.229       8.112       7.972       7.832       7.625       7.407       7.134       6.871    
        6.741       6.617       6.475       6.352       6.220       5.981       5.711       5.374       5.099       4.923    
        4.770       4.598       4.382       4.194       3.955       3.671       3.451       3.251       2.989       2.676    
        2.395       2.175       1.994       1.809       1.592       1.355       1.104      0.7661      0.4150       0.000    
  38    10.00       9.934       9.861       9.782       9.675       9.551       9.410       9.272       9.074       8.803    
        8.569       8.402       8.277       8.163       7.995       7.763       7.514       7.227       6.929       6.776    
        6.676       6.515       6.365       6.266       6.108       5.876       5.556       5.267       5.120       4.982    
        4.811       4.620       4.417       4.227       3.994       3.736       3.540       3.336       3.024       2.698    
        2.454       2.251       2.067       1.882       1.689       1.461       1.201      0.8765      0.4547       0.000    
  39    10.00       9.916       9.841       9.762       9.656       9.516       9.364       9.217       9.035       8.815    
        8.631       8.504       8.358       8.185       7.912       7.600       7.283       6.974       6.802       6.714    
        6.559       6.381       6.274       6.179       6.027       5.760       5.463       5.291       5.164       5.018    
        4.834       4.655       4.450       4.248       4.051       3.840       3.614       3.377       3.057       2.736    
        2.480       2.276       2.133       1.986       1.777       1.543       1.282      0.9286      0.4547       0.000    
  40    10.00       9.901       9.828       9.748       9.640       9.493       9.335       9.186       9.032       8.847    
        8.693       8.580       8.383       8.086       7.730       7.378       7.061       6.859       6.753       6.630    
        6.454       6.305       6.214       6.088       5.913       5.698       5.513       5.345       5.196       5.057    
        4.887       4.689       4.483       4.294       4.114       3.900       3.657       3.420       3.072       2.722    
        2.491       2.322       2.173       2.047       1.835       1.575       1.335      0.9648      0.4763       0.000    
  41    10.00       9.908       9.822       9.733       9.612       9.478       9.340       9.205       9.056       8.890    
        8.742       8.595       8.313       7.927       7.534       7.218       6.976       6.809       6.697       6.552    
        6.371       6.246       6.136       6.003       5.855       5.707       5.574       5.413       5.235       5.075    
        4.922       4.735       4.527       4.356       4.169       3.960       3.712       3.382       2.997       2.728    
        2.541       2.365       2.228       2.069       1.846       1.588       1.376       1.024      0.5243       0.000    
  42    10.00       9.910       9.814       9.731       9.626       9.501       9.362       9.211       9.076       8.946    
        8.762       8.487       8.130       7.732       7.380       7.140       6.931       6.776       6.641       6.466    
        6.301       6.183       6.069       5.977       5.856       5.750       5.627       5.442       5.251       5.109    
        4.977       4.774       4.552       4.392       4.232       3.998       3.679       3.284       2.943       2.739    
        2.589       2.440       2.271       2.064       1.832       1.625       1.411       1.066      0.5485       0.000    
  43    10.00       9.911       9.822       9.737       9.653       9.541       9.401       9.251       9.102       8.910    
        8.635       8.317       7.953       7.571       7.303       7.103       6.905       6.739       6.575       6.401    
        6.249       6.138       6.057       5.987       5.882       5.769       5.647       5.465       5.296       5.181    
        5.013       4.791       4.583       4.425       4.241       3.955       3.581       3.200       2.963       2.802    
        2.644       2.483       2.276       2.053       1.842       1.641       1.449       1.063      0.4788       0.000    
  44    10.00       9.905       9.824       9.750       9.657       9.570       9.451       9.266       9.061       8.790    
        8.510       8.176       7.779       7.503       7.297       7.075       6.859       6.667       6.488       6.334    
        6.226       6.140       6.066       5.994       5.903       5.787       5.644       5.502       5.371       5.227    
        5.065       4.865       4.630       4.407       4.191       3.899       3.509       3.181       2.991       2.835    
        2.684       2.506       2.299       2.100       1.879       1.656       1.405      0.9101      0.4022       0.000    
  45    10.00       9.905       9.838       9.753       9.665       9.587       9.410       9.197       8.954       8.686    
        8.452       8.051       7.683       7.478       7.265       7.022       6.776       6.579       6.423       6.314    
        6.238       6.163       6.086       5.999       5.902       5.795       5.676       5.556       5.449       5.301    
        5.107       4.893       4.655       4.386       4.141       3.824       3.458       3.200       3.044       2.888    
        2.691       2.486       2.304       2.124       1.931       1.692       1.267      0.7628      0.3863       0.000    
  46    10.00       9.922       9.850       9.759       9.662       9.513       9.326       9.149       8.926       8.665    
        8.326       7.958       7.663       7.406       7.189       6.948       6.702       6.549       6.433       6.333    
        6.263       6.194       6.101       5.998       5.902       5.808       5.711       5.604       5.497       5.360    
        5.180       4.956       4.692       4.388       4.047       3.707       3.441       3.265       3.092       2.912    
        2.686       2.472       2.291       2.147       1.939       1.605       1.136      0.7184      0.3650       0.000    
  47    10.00       9.939       9.872       9.777       9.608       9.429       9.268       9.116       8.916       8.590    
        8.225       7.883       7.599       7.383       7.151       6.884       6.672       6.536       6.444       6.362    
        6.287       6.206       6.114       6.012       5.918       5.837       5.751       5.646       5.522       5.387    
        5.227       5.028       4.687       4.284       3.964       3.714       3.483       3.332       3.173       2.923    
        2.654       2.429       2.261       2.143       1.883       1.485       1.054      0.6912      0.3548       0.000    
  48    10.00       9.946       9.875       9.733       9.562       9.413       9.242       9.088       8.875       8.530    
        8.133       7.823       7.593       7.336       7.065       6.826       6.667       6.535       6.446       6.385    
        6.310       6.212       6.111       6.023       5.947       5.879       5.797       5.680       5.534       5.376    
        5.211       4.982       4.630       4.300       4.020       3.772       3.556       3.385       3.180       2.880    
        2.596       2.415       2.275       2.055       1.707       1.351       1.006      0.6961      0.3745       0.000    
  49    10.00       9.943       9.842       9.714       9.574       9.401       9.229       9.056       8.792       8.427    
        8.085       7.795       7.518       7.274       7.065       6.840       6.635       6.515       6.457       6.398    
        6.327       6.217       6.105       6.032       5.970       5.916       5.824       5.682       5.516       5.365    
        5.192       4.913       4.615       4.394       4.138       3.847       3.585       3.379       3.142       2.823    
        2.593       2.435       2.226       1.894       1.585       1.294      0.9949      0.6960      0.3732       0.000    
  50    10.00       9.935       9.830       9.700       9.573       9.411       9.218       9.003       8.724       8.436    
        8.078       7.716       7.458       7.264       7.088       6.834       6.607       6.517       6.465       6.406    
        6.335       6.221       6.107       6.036       5.983       5.933       5.829       5.666       5.498       5.355    
        5.177       4.890       4.660       4.461       4.193       3.904       3.630       3.347       3.024       2.757    
        2.638       2.459       2.136       1.803       1.574       1.292       1.009      0.6816      0.3039       0.000    

 HEAD WILL BE SAVED ON UNIT   51 AT END OF TIME STEP   3, STRESS PERIOD    2

 DRAWDOWN WILL BE SAVED ON UNIT   52 AT END OF TIME STEP   3, STRESS PERIOD    2
1
  VOLUMETRIC BUDGET FOR ENTIRE MODEL AT END OF TIME STEP  3 IN STRESS PERIOD   2
  ------------------------------------------------------------------------------

     CUMULATIVE VOLUMES      L**3       RATES FOR THIS TIME STEP      L**3/T
     ------------------                 ------------------------

           IN:                                      IN:
           ---                                      ---
             STORAGE =        1500.0063               STORAGE =         500.0014
       CONSTANT HEAD =        2388.3550         CONSTANT HEAD =         597.0888
               WELLS =           0.0000                 WELLS =           0.0000

            TOTAL IN =        3888.3613              TOTAL IN =        1097.0902

          OUT:                                     OUT:
          ----                                     ----
             STORAGE =       7.0536E-03               STORAGE =       1.6419E-03
       CONSTANT HEAD =        2388.3545         CONSTANT HEAD =         597.0886
               WELLS =        1500.0000                 WELLS =         500.0000

           TOTAL OUT =        3888.3616             TOTAL OUT =        1097.0902

            IN - OUT =      -2.4414E-04              IN - OUT =           0.0000

 PERCENT DISCREPANCY =           0.00     PERCENT DISCREPANCY =           0.00






          TIME SUMMARY AT END OF TIME STEP   3 IN STRESS PERIOD    2
                    SECONDS     MINUTES      HOURS       DAYS        YEARS
                    -----------------------------------------------------------
   TIME STEP LENGTH  86400.      1440.0      24.000      1.0000     2.73785E-03
 STRESS PERIOD TIME 2.59200E+05  4320.0      72.000      3.0000     8.21355E-03
         TOTAL TIME 3.45600E+05  5760.0      96.000      4.0000     1.09514E-02
1
 
 SOLVING FOR HEAD 

 OUTPUT CONTROL FOR STRESS PERIOD    2   TIME STEP   4
    SAVE HEAD FOR ALL LAYERS
    SAVE DRAWDOWN FOR ALL LAYERS
    SAVE BUDGET
    PRINT HEAD FOR ALL LAYERS
    PRINT BUDGET
 UBDSV1 SAVING "         STORAGE" ON UNIT  53 AT TIME STEP  4, STRESS PERIOD   2
 UBDSV2 SAVING "   CONSTANT HEAD" ON UNIT  53 AT TIME STEP  4, STRESS PERIOD   2
 UBDSV1 SAVING "FLOW RIGHT FACE " ON UNIT  53 AT TIME STEP  4, STRESS PERIOD   2
 UBDSV1 SAVING "FLOW FRONT FACE " ON UNIT  53 AT TIME STEP  4, STRESS PERIOD   2
1
              HEAD IN LAYER   1 AT END OF TIME STEP   4 IN STRESS PERIOD    2
  ---------------------------------------------------------------------------

            1           2           3           4           5           6           7           8           9          10
           11          12          13          14          15          16          17          18          19          20
           21          22          23          24          25          26          27          28          29          30
           31          32          33          34          35          36          37          38          39          40
           41          42          43          44          45          46          47          48          49          50
 ........................................................................................................................
   1    10.00       9.960       9.902       9.836       9.772       9.700       9.631       9.563       9.478       9.394    
        9.330       9.266       9.201       9.138       9.035       8.911       8.773       8.665       8.608       8.542    
        8.463       8.399       8.336       8.261       8.161       7.964       7.741       7.584       7.430       7.285    
        7.096       6.795       6.409       5.982       5.540       5.070       4.605       4.218       3.713       3.165    
        2.715       2.285       1.807       1.408       1.161      0.9524      0.7868      0.6669      0.4476       0.000    
   2    10.00       9.959       9.906       9.840       9.775       9.711       9.643       9.554       9.461       9.392    
        9.336       9.282       9.227       9.149       9.031       8.902       8.772       8.665       8.607       8.533    
        8.454       8.406       8.355       8.277       8.151       7.958       7.756       7.594       7.438       7.297    
        7.086       6.770       6.366       5.880       5.408       4.954       4.551       4.178       3.664       3.134    
        2.683       2.198       1.763       1.449       1.217       1.037      0.8317      0.6492      0.3621       0.000    
   3    10.00       9.953       9.901       9.842       9.785       9.720       9.633       9.539       9.473       9.412    
        9.349       9.300       9.252       9.176       9.055       8.896       8.755       8.668       8.600       8.525    
        8.461       8.411       8.358       8.256       8.119       7.948       7.773       7.645       7.464       7.278    
        7.014       6.640       6.182       5.712       5.292       4.867       4.472       4.072       3.540       3.049    
        2.661       2.214       1.814       1.526       1.295       1.109      0.8655      0.5802      0.2630       0.000    
   4    10.00       9.953       9.902       9.845       9.781       9.705       9.616       9.544       9.487       9.424    
        9.369       9.327       9.274       9.188       9.071       8.902       8.756       8.674       8.598       8.531    
        8.462       8.401       8.335       8.228       8.094       7.941       7.782       7.626       7.467       7.256    
        6.925       6.434       5.949       5.592       5.239       4.799       4.324       3.855       3.430       3.057    
        2.693       2.277       1.900       1.639       1.379       1.142      0.8410      0.5220      0.2500       0.000    
   5    10.00       9.950       9.899       9.834       9.769       9.699       9.619       9.557       9.498       9.439    
        9.391       9.351       9.280       9.181       9.052       8.899       8.774       8.685       8.611       8.522    
        8.441       8.375       8.295       8.190       8.070       7.915       7.757       7.613       7.451       7.198    
        6.728       6.184       5.795       5.514       5.164       4.685       4.194       3.767       3.446       3.108    
        2.749       2.365       1.990       1.746       1.467       1.125      0.7657      0.4656      0.2342       0.000    
   6    10.00       9.943       9.882       9.829       9.769       9.693       9.625       9.572       9.510       9.454    
        9.409       9.360       9.272       9.161       9.049       8.920       8.795       8.693       8.596       8.495    
        8.413       8.337       8.268       8.173       8.021       7.870       7.741       7.595       7.372       6.994    
        6.480       5.989       5.665       5.419       5.102       4.627       4.136       3.771       3.499       3.191    
        2.860       2.520       2.135       1.808       1.438       1.061      0.6765      0.4019      0.2213       0.000    
   7    10.00       9.932       9.873       9.823       9.762       9.698       9.638       9.587       9.530       9.476    
        9.420       9.347       9.251       9.146       9.040       8.940       8.810       8.674       8.562       8.463    
        8.378       8.305       8.244       8.130       7.975       7.845       7.715       7.524       7.176       6.699    
        6.206       5.806       5.581       5.359       4.990       4.547       4.212       3.855       3.554       3.350    
        3.034       2.667       2.214       1.748       1.334      0.9219      0.5831      0.4050      0.2085       0.000    
   8    10.00       9.931       9.878       9.822       9.760       9.704       9.651       9.600       9.548       9.496    
        9.423       9.330       9.235       9.136       9.039       8.927       8.768       8.625       8.535       8.440    
        8.346       8.282       8.197       8.077       7.944       7.807       7.595       7.302       6.875       6.456    
        6.080       5.760       5.548       5.292       4.900       4.529       4.227       3.961       3.722       3.485    
        3.175       2.713       2.156       1.660       1.228      0.8635      0.6175      0.3969      0.1902       0.000    
   9    10.00       9.942       9.877       9.816       9.770       9.724       9.671       9.617       9.559       9.503    
        9.420       9.315       9.213       9.115       9.012       8.881       8.729       8.598       8.501       8.405    
        8.322       8.242       8.129       8.017       7.897       7.736       7.438       7.048       6.650       6.342    
        6.027       5.751       5.515       5.192       4.824       4.510       4.277       4.075       3.860       3.598    
        3.225       2.720       2.152       1.658       1.238      0.8830      0.6233      0.4005      0.2048       0.000    
  10    10.00       9.940       9.872       9.821       9.779       9.734       9.686       9.640       9.574       9.492    
        9.393       9.283       9.187       9.095       8.991       8.833       8.673       8.561       8.471       8.381    
        8.303       8.197       8.073       7.951       7.815       7.595       7.227       6.820       6.471       6.222    
        6.011       5.765       5.483       5.152       4.800       4.526       4.340       4.163       3.929       3.628    
        3.201       2.678       2.158       1.736       1.341      0.9723      0.6430      0.4254      0.2286       0.000    
  11    10.00       9.927       9.872       9.831       9.789       9.751       9.707       9.643       9.553       9.463    
        9.364       9.257       9.169       9.061       8.921       8.772       8.642       8.542       8.460       8.369    
        8.259       8.129       7.971       7.833       7.624       7.326       7.009       6.694       6.388       6.188    
        6.020       5.718       5.401       5.124       4.845       4.621       4.423       4.195       3.906       3.544    
        3.143       2.737       2.236       1.819       1.443       1.076      0.7227      0.4178      0.1752       0.000    
  12    10.00       9.930       9.879       9.835       9.800       9.760       9.710       9.622       9.518       9.432    
        9.341       9.232       9.125       8.999       8.878       8.743       8.618       8.531       8.444       8.326    
        8.157       7.973       7.793       7.610       7.342       7.113       6.908       6.606       6.338       6.161    
        5.964       5.695       5.416       5.149       4.934       4.719       4.462       4.184       3.833       3.467    
        3.127       2.759       2.275       1.864       1.509       1.125      0.7607      0.3943      0.1308       0.000    
  13    10.00       9.943       9.895       9.849       9.807       9.760       9.682       9.581       9.485       9.397    
        9.296       9.191       9.083       8.954       8.823       8.697       8.607       8.505       8.395       8.186    
        7.945       7.755       7.562       7.330       7.121       6.991       6.768       6.501       6.331       6.158    
        5.914       5.661       5.433       5.214       5.019       4.817       4.507       4.127       3.786       3.440    
        3.113       2.731       2.212       1.830       1.525       1.116      0.6997      0.3407      0.1043       0.000    
  14    10.00       9.956       9.915       9.866       9.809       9.732       9.631       9.531       9.445       9.351    
        9.248       9.151       9.031       8.900       8.786       8.678       8.551       8.429       8.231       7.935    
        7.710       7.529       7.287       7.101       6.987       6.862       6.648       6.464       6.308       6.129    
        5.901       5.687       5.507       5.296       5.078       4.867       4.518       4.100       3.747       3.389    
        3.053       2.579       2.085       1.784       1.438       1.071      0.7017      0.3159      8.9964E-02   0.000    
  15    10.00       9.965       9.922       9.868       9.800       9.690       9.568       9.481       9.401       9.309    
        9.230       9.132       8.982       8.836       8.734       8.581       8.429       8.303       8.021       7.708    
        7.507       7.280       7.073       6.984       6.905       6.769       6.583       6.407       6.271       6.115    
        5.912       5.737       5.571       5.376       5.150       4.888       4.481       4.021       3.649       3.322    
        2.961       2.483       2.092       1.715       1.304      0.9803      0.6277      0.2900      9.8102E-02   0.000    
  16    10.00       9.971       9.925       9.859       9.760       9.629       9.521       9.452       9.383       9.291    
        9.197       9.059       8.879       8.743       8.606       8.438       8.337       8.107       7.728       7.462    
        7.282       7.087       6.994       6.928       6.817       6.659       6.508       6.391       6.277       6.125    
        5.939       5.768       5.623       5.425       5.150       4.805       4.347       3.949       3.651       3.300    
        2.881       2.410       1.990       1.582       1.228      0.8691      0.5637      0.2932      0.1046       0.000    
  17    10.00       9.967       9.912       9.824       9.712       9.578       9.483       9.424       9.343       9.248    
        9.087       8.901       8.755       8.623       8.457       8.297       8.106       7.760       7.452       7.283    
        7.139       7.017       6.949       6.840       6.686       6.568       6.497       6.416       6.294       6.121    
        5.948       5.786       5.629       5.438       5.063       4.617       4.262       3.994       3.701       3.277    
        2.745       2.285       1.895       1.512       1.102      0.7256      0.4810      0.2665      0.1110       0.000    
  18    10.00       9.954       9.884       9.782       9.636       9.524       9.458       9.372       9.276       9.138    
        8.941       8.790       8.658       8.468       8.261       8.055       7.802       7.512       7.322       7.188    
        7.075       6.968       6.867       6.732       6.611       6.551       6.506       6.437       6.307       6.131    
        5.964       5.793       5.591       5.303       4.926       4.560       4.271       4.049       3.680       3.163    
        2.650       2.168       1.776       1.417       1.024      0.6698      0.4068      0.2229      0.1040       0.000    
  19    10.00       9.938       9.858       9.711       9.567       9.502       9.420       9.310       9.195       9.042    
        8.871       8.725       8.523       8.262       8.056       7.860       7.597       7.363       7.240       7.153    
        7.035       6.908       6.799       6.676       6.596       6.549       6.500       6.423       6.297       6.140    
        5.974       5.777       5.510       5.202       4.881       4.562       4.307       4.023       3.507       3.000    
        2.595       2.102       1.677       1.327      0.9408      0.6039      0.3662      0.2116      0.1059       0.000    
  20    10.00       9.920       9.797       9.645       9.540       9.467       9.377       9.261       9.126       8.986    
        8.810       8.600       8.335       8.104       7.926       7.698       7.463       7.341       7.238       7.122    
        7.002       6.873       6.742       6.643       6.584       6.533       6.467       6.386       6.271       6.123    
        5.957       5.751       5.470       5.172       4.869       4.586       4.312       3.874       3.334       2.904    
        2.457       1.981       1.605       1.255      0.8949      0.5427      0.3180      0.2134      0.1078       0.000    
  21    10.00       9.874       9.748       9.625       9.516       9.434       9.337       9.190       9.055       8.922    
        8.698       8.440       8.198       8.012       7.826       7.612       7.445       7.340       7.227       7.106    
        6.964       6.822       6.706       6.607       6.529       6.461       6.407       6.331       6.215       6.083    
        5.924       5.703       5.437       5.157       4.871       4.589       4.202       3.759       3.286       2.775    
        2.326       1.880       1.555       1.234      0.7771      0.4578      0.3257      0.2375      0.1141       0.000    
  22    10.00       9.856       9.708       9.589       9.497       9.400       9.260       9.116       8.998       8.825    
        8.593       8.329       8.124       7.972       7.770       7.575       7.436       7.332       7.223       7.082    
        6.924       6.783       6.641       6.504       6.405       6.355       6.314       6.231       6.138       6.032    
        5.866       5.654       5.425       5.144       4.857       4.577       4.166       3.713       3.158       2.654    
        2.267       1.862       1.502       1.027      0.6382      0.4583      0.3443      0.2288      9.0789E-02   0.000    
  23    10.00       9.825       9.682       9.583       9.484       9.341       9.185       9.074       8.927       8.750    
        8.517       8.284       8.126       7.935       7.719       7.551       7.435       7.342       7.222       7.059    
        6.890       6.729       6.546       6.319       6.109       6.081       6.124       6.106       6.057       5.963    
        5.819       5.612       5.384       5.141       4.852       4.546       4.155       3.589       3.005       2.591    
        2.220       1.761       1.246      0.8356      0.6213      0.4696      0.3432      0.2175      0.1012       0.000    
  24    10.00       9.802       9.699       9.586       9.447       9.292       9.169       9.049       8.906       8.702    
        8.490       8.308       8.132       7.902       7.674       7.542       7.449       7.354       7.213       7.050    
        6.886       6.703       6.426       5.902       5.075       5.429       5.799       5.954       5.968       5.895    
        5.754       5.563       5.355       5.096       4.814       4.503       4.017       3.422       2.925       2.486    
        2.037       1.555       1.101      0.7952      0.6169      0.4660      0.3347      0.2535      0.1395       0.000    
  25    10.00       9.828       9.719       9.584       9.438       9.299       9.174       9.059       8.884       8.681    
        8.502       8.326       8.111       7.856       7.680       7.562       7.459       7.350       7.220       7.073    
        6.901       6.723       6.232       5.062       2.170       4.636       5.491       5.819       5.893       5.826    
        5.696       5.530       5.305       5.004       4.712       4.349       3.858       3.287       2.835       2.361    
        1.844       1.391       1.022      0.7850      0.6408      0.5005      0.3655      0.2693      0.1757       0.000    
  26    10.00       9.853       9.751       9.606       9.455       9.333       9.202       9.057       8.877       8.717    
        8.560       8.321       8.048       7.832       7.705       7.600       7.479       7.338       7.202       7.076    
        6.948       6.766       6.348       5.560       4.663       5.193       5.666       5.858       5.880       5.774    
        5.619       5.462       5.217       4.927       4.649       4.258       3.624       3.105       2.730       2.155    
        1.598       1.225       1.009      0.8507      0.6976      0.5423      0.4018      0.2942      0.1756       0.000    
  27    10.00       9.886       9.762       9.639       9.504       9.362       9.232       9.090       8.927       8.771    
        8.556       8.271       8.033       7.857       7.745       7.624       7.464       7.311       7.201       7.104    
        7.001       6.825       6.530       6.144       5.725       5.767       5.899       5.943       5.880       5.725    
        5.561       5.400       5.171       4.884       4.522       3.938       3.360       2.963       2.398       1.843    
        1.449       1.207       1.051      0.9166      0.7753      0.5963      0.4291      0.3211      0.2158       0.000    
  28    10.00       9.897       9.792       9.674       9.552       9.417       9.281       9.137       8.980       8.797    
        8.529       8.268       8.058       7.886       7.768       7.639       7.502       7.353       7.214       7.119    
        7.030       6.906       6.724       6.473       6.233       6.102       6.061       6.012       5.887       5.704    
        5.506       5.330       5.079       4.715       4.223       3.645       3.175       2.648       2.102       1.738    
        1.454       1.256       1.101      0.9678      0.8226      0.6513      0.4858      0.3649      0.2224       0.000    
  29    10.00       9.902       9.803       9.714       9.596       9.472       9.341       9.194       9.026       8.778    
        8.512       8.279       8.074       7.929       7.786       7.645       7.516       7.395       7.266       7.149    
        7.052       6.947       6.823       6.668       6.455       6.296       6.178       6.061       5.888       5.630    
        5.410       5.155       4.890       4.437       3.902       3.416       2.950       2.432       2.022       1.762    
        1.531       1.313       1.144       1.014      0.8726      0.6970      0.5266      0.3853      0.2246       0.000    
  30    10.00       9.910       9.828       9.750       9.647       9.533       9.414       9.249       9.036       8.779    
        8.502       8.261       8.088       7.939       7.792       7.655       7.543       7.440       7.320       7.188    
        7.076       6.975       6.862       6.738       6.553       6.364       6.227       6.069       5.833       5.541    
        5.236       4.897       4.587       4.160       3.758       3.317       2.845       2.379       2.083       1.847    
        1.586       1.372       1.209       1.054      0.8947      0.7393      0.5607      0.4013      0.2424       0.000    
  31    10.00       9.925       9.854       9.781       9.705       9.614       9.483       9.285       9.034       8.766    
        8.495       8.268       8.100       7.942       7.810       7.678       7.562       7.477       7.347       7.215    
        7.101       6.984       6.868       6.704       6.527       6.382       6.242       6.054       5.759       5.408    
        5.008       4.655       4.370       4.068       3.685       3.238       2.796       2.419       2.183       1.970    
        1.699       1.452       1.262       1.098      0.9398      0.7752      0.5964      0.4284      0.2357       0.000    
  32    10.00       9.937       9.882       9.818       9.744       9.660       9.528       9.301       9.062       8.814    
        8.524       8.285       8.112       7.960       7.819       7.702       7.597       7.484       7.367       7.238    
        7.096       6.965       6.812       6.630       6.498       6.404       6.252       5.978       5.594       5.192    
        4.833       4.542       4.279       4.009       3.651       3.256       2.888       2.560       2.307       2.067    
        1.814       1.557       1.354       1.163      0.9820      0.8334      0.6504      0.4284      0.2127       0.000    
  33    10.00       9.945       9.900       9.848       9.776       9.680       9.509       9.288       9.088       8.853    
        8.565       8.322       8.138       7.965       7.827       7.728       7.629       7.508       7.376       7.229    
        7.078       6.923       6.736       6.588       6.494       6.397       6.133       5.775       5.419       5.091    
        4.778       4.537       4.289       3.967       3.638       3.286       2.974       2.710       2.446       2.182    
        1.947       1.703       1.481       1.280       1.080      0.9037      0.6982      0.4367      0.2057       0.000    
  34    10.00       9.950       9.920       9.874       9.784       9.649       9.483       9.319       9.111       8.854    
        8.594       8.351       8.147       7.968       7.847       7.767       7.654       7.520       7.358       7.207    
        7.050       6.856       6.683       6.556       6.452       6.272       5.968       5.678       5.352       5.008    
        4.755       4.563       4.332       4.020       3.695       3.379       3.093       2.855       2.586       2.322    
        2.098       1.874       1.639       1.434       1.221       1.014      0.7532      0.4837      0.2550       0.000    
  35    10.00       9.959       9.924       9.865       9.751       9.608       9.486       9.345       9.150       8.869    
        8.587       8.355       8.144       7.992       7.892       7.798       7.665       7.504       7.334       7.160    
        6.968       6.779       6.603       6.480       6.361       6.194       5.911       5.587       5.251       4.941    
        4.763       4.572       4.335       4.098       3.825       3.495       3.211       3.020       2.749       2.456    
        2.246       2.023       1.799       1.598       1.361       1.130      0.8675      0.5789      0.2893       0.000    
  36    10.00       9.956       9.906       9.839       9.725       9.588       9.478       9.344       9.145       8.878    
        8.580       8.324       8.166       8.048       7.948       7.819       7.651       7.482       7.284       7.031    
        6.830       6.672       6.525       6.415       6.308       6.113       5.810       5.490       5.160       4.903    
        4.743       4.581       4.368       4.149       3.918       3.620       3.339       3.132       2.895       2.581    
        2.346       2.120       1.892       1.726       1.498       1.242      0.9802      0.6789      0.3453       0.000    
  37    10.00       9.941       9.885       9.812       9.696       9.571       9.446       9.314       9.130       8.839    
        8.535       8.326       8.229       8.112       7.972       7.832       7.625       7.407       7.134       6.871    
        6.741       6.617       6.474       6.352       6.219       5.981       5.711       5.374       5.099       4.923    
        4.770       4.598       4.382       4.194       3.955       3.671       3.451       3.251       2.989       2.676    
        2.395       2.175       1.994       1.809       1.592       1.355       1.104      0.7661      0.4150       0.000    
  38    10.00       9.934       9.861       9.782       9.675       9.551       9.410       9.272       9.074       8.803    
        8.569       8.402       8.277       8.163       7.994       7.763       7.514       7.227       6.929       6.776    
        6.676       6.515       6.365       6.266       6.108       5.876       5.556       5.267       5.120       4.982    
        4.811       4.620       4.417       4.227       3.994       3.736       3.540       3.336       3.024       2.698    
        2.454       2.251       2.067       1.882       1.689       1.461       1.201      0.8765      0.4547       0.000    
  39    10.00       9.916       9.841       9.762       9.656       9.516       9.364       9.217       9.035       8.815    
        8.631       8.504       8.358       8.185       7.912       7.600       7.283       6.974       6.802       6.714    
        6.559       6.381       6.274       6.179       6.027       5.760       5.463       5.291       5.164       5.018    
        4.834       4.655       4.450       4.248       4.051       3.840       3.614       3.377       3.057       2.736    
        2.480       2.276       2.133       1.986       1.777       1.543       1.282      0.9286      0.4547       0.000    
  40    10.00       9.901       9.828       9.748       9.640       9.493       9.335       9.186       9.032       8.847    
        8.693       8.580       8.383       8.086       7.730       7.378       7.061       6.859       6.753       6.630    
        6.454       6.305       6.214       6.088       5.913       5.698       5.513       5.345       5.196       5.057    
        4.887       4.689       4.483       4.294       4.114       3.900       3.657       3.420       3.072       2.722    
        2.491       2.322       2.173       2.047       1.835       1.575       1.335      0.9648      0.4763       0.000    
  41    10.00       9.908       9.822       9.733       9.612       9.478       9.340       9.205       9.056       8.890    
        8.742       8.595       8.313       7.927       7.534       7.218       6.976       6.809       6.697       6.552    
        6.371       6.246       6.136       6.003       5.855       5.707       5.574       5.413       5.235       5.075    
        4.922       4.735       4.527       4.356       4.169       3.960       3.712       3.382       2.997       2.728    
        2.541       2.365       2.228       2.069       1.846       1.588       1.376       1.024      0.5243       0.000    
  42    10.00       9.910       9.814       9.731       9.626       9.501       9.362       9.211       9.076       8.946    
        8.762       8.487       8.130       7.732       7.380       7.140       6.931       6.776       6.641       6.466    
        6.301       6.183       6.069       5.977       5.856       5.750       5.627       5.442       5.251       5.109    
        4.977       4.774       4.552       4.392       4.232       3.998       3.679       3.284       2.943       2.739    
        2.589       2.440       2.271       2.064       1.832       1.625       1.411       1.066      0.5485       0.000    
  43    10.00       9.911       9.822       9.737       9.653       9.541       9.401       9.251       9.102       8.910    
        8.635       8.317       7.953       7.571       7.303       7.103       6.905       6.739       6.575       6.401    
        6.249       6.138       6.057       5.987       5.882       5.769       5.647       5.465       5.296       5.181    
        5.013       4.791       4.583       4.425       4.241       3.955       3.581       3.200       2.963       2.802    
        2.644       2.483       2.276       2.053       1.842       1.641       1.449       1.063      0.4788       0.000    
  44    10.00       9.905       9.824       9.750       9.657       9.570       9.451       9.266       9.061       8.790    
        8.510       8.176       7.779       7.503       7.297       7.075       6.859       6.667       6.488       6.334    
        6.226       6.140       6.066       5.994       5.903       5.787       5.644       5.502       5.371       5.227    
        5.065       4.865       4.630       4.407       4.191       3.899       3.509       3.181       2.991       2.835    
        2.684       2.506       2.299       2.100       1.879       1.656       1.405      0.9101      0.4022       0.000    
  45    10.00       9.905       9.838       9.753       9.665       9.587       9.410       9.197       8.954       8.686    
        8.452       8.051       7.683       7.478       7.265       7.022       6.776       6.579       6.423       6.314    
        6.238       6.163       6.086       5.999       5.902       5.795       5.676       5.556       5.449       5.301    
        5.107       4.893       4.655       4.386       4.141       3.824       3.458       3.200       3.044       2.888    
        2.691       2.486       2.304       2.124       1.931       1.692       1.267      0.7628      0.3863       0.000    
  46    10.00       9.922       9.850       9.759       9.662       9.513       9.326       9.149       8.926       8.665    
        8.326       7.958       7.663       7.406       7.189       6.948       6.702       6.549       6.433       6.333    
        6.263       6.194       6.101       5.998       5.902       5.808       5.711       5.604       5.497       5.360    
        5.180       4.956       4.692       4.388       4.047       3.707       3.441       3.265       3.092       2.912    
        2.686       2.472       2.291       2.147       1.939       1.605       1.136      0.7184      0.3650       0.000    
  47    10.00       9.939       9.872       9.777       9.608       9.429       9.268       9.116       8.916       8.590    
        8.225       7.883       7.599       7.383       7.151       6.884       6.672       6.536       6.444       6.362    
        6.287       6.206       6.114       6.012       5.918       5.837       5.751       5.646       5.522       5.387    
        5.227       5.028       4.687       4.284       3.964       3.714       3.483       3.332       3.173       2.923    
        2.654       2.429       2.261       2.143       1.883       1.485       1.054      0.6912      0.3548       0.000    
  48    10.00       9.946       9.875       9.733       9.562       9.413       9.242       9.088       8.875       8.530    
        8.133       7.823       7.593       7.336       7.065       6.826       6.667       6.535       6.446       6.385    
        6.310       6.212       6.111       6.023       5.947       5.879       5.797       5.680       5.534       5.376    
        5.211       4.982       4.630       4.300       4.020       3.772       3.556       3.385       3.180       2.880    
        2.596       2.415       2.275       2.055       1.707       1.351       1.006      0.6961      0.3745       0.000    
  49    10.00       9.943       9.842       9.714       9.574       9.401       9.229       9.056       8.792       8.427    
        8.085       7.795       7.518       7.274       7.065       6.840       6.635       6.515       6.457       6.398    
        6.327       6.217       6.105       6.032       5.970       5.916       5.824       5.682       5.516       5.365    
        5.192       4.913       4.615       4.394       4.138       3.847       3.585       3.379       3.142       2.823    
        2.593       2.435       2.226       1.894       1.585       1.294      0.9949      0.6960      0.3732       0.000    
  50    10.00       9.935       9.830       9.700       9.573       9.411       9.218       9.003       8.724       8.436    
        8.078       7.716       7.458       7.264       7.088       6.834       6.607       6.517       6.465       6.406    
        6.335       6.221       6.107       6.036       5.983       5.933       5.829       5.666       5.498       5.355    
        5.177       4.890       4.660       4.461       4.193       3.904       3.630       3.347       3.024       2.757    
        2.638       2.459       2.136       1.803       1.574       1.292       1.009      0.6816      0.3039       0.000    

 HEAD WILL BE SAVED ON UNIT   51 AT END OF TIME STEP   4, STRESS PERIOD    2

 DRAWDOWN WILL BE SAVED ON UNIT   52 AT END OF TIME STEP   4, STRESS PERIOD    2
1
  VOLUMETRIC BUDGET FOR ENTIRE MODEL AT END OF TIME STEP  4 IN STRESS PERIOD   2
  ------------------------------------------------------------------------------

     CUMULATIVE VOLUMES      L**3       RATES FOR THIS TIME STEP      L**3/T
     ------------------                 ------------------------

           IN:                                      IN:
           ---                                      ---
             STORAGE =        2000.0070               STORAGE =         500.0006
       CONSTANT HEAD =        2985.4441         CONSTANT HEAD =         597.0891
               WELLS =           0.0000                 WELLS =           0.0000

            TOTAL IN =        4985.4512              TOTAL IN =        1097.0897

          OUT:                                     OUT:
          ----                                     ----
             STORAGE =       8.1307E-03               STORAGE =       1.0771E-03
       CONSTANT HEAD =        2985.4431         CONSTANT HEAD =         597.0886
               WELLS =        2000.0000                 WELLS =         500.0000

           TOTAL OUT =        4985.4512             TOTAL OUT =        1097.0897

            IN - OUT =           0.0000              IN - OUT =           0.0000

 PERCENT DISCREPANCY =           0.00     PERCENT DISCREPANCY =           0.00






          TIME SUMMARY AT END OF TIME STEP   4 IN STRESS PERIOD    2
                    SECONDS     MINUTES      HOURS       DAYS        YEARS
                    -----------------------------------------------------------
   TIME STEP LENGTH  86400.      1440.0      24.000      1.0000     2.73785E-03
 STRESS PERIOD TIME 3.45600E+05  5760.0      96.000      4.0000     1.09514E-02
         TOTAL TIME 4.32000E+05  7200.0      120.00      5.0000     1.36893E-02
1
 
 SOLVING FOR HEAD 

 OUTPUT CONTROL FOR STRESS PERIOD    2   TIME STEP   5
    SAVE HEAD FOR ALL LAYERS
    SAVE DRAWDOWN FOR ALL LAYERS
    SAVE BUDGET
    PRINT HEAD FOR ALL LAYERS
    PRINT BUDGET
 UBDSV1 SAVING "         STORAGE" ON UNIT  53 AT TIME STEP  5, STRESS PERIOD   2
 UBDSV2 SAVING "   CONSTANT HEAD" ON UNIT  53 AT TIME STEP  5, STRESS PERIOD   2
 UBDSV1 SAVING "FLOW RIGHT FACE " ON UNIT  53 AT TIME STEP  5, STRESS PERIOD   2
 UBDSV1 SAVING "FLOW FRONT FACE " ON UNIT  53 AT TIME STEP  5, STRESS PERIOD   2
1
              HEAD IN LAYER   1 AT END OF TIME STEP   5 IN STRESS PERIOD    2
  ---------------------------------------------------------------------------

            1           2           3           4           5           6           7           8           9          10
           11          12          13          14          15          16          17          18          19          20
           21          22          23          24          25          26          27          28          29          30
           31          32          33          34          35          36          37          38          39          40
           41          42          43          44          45          46          47          48          49          50
 ........................................................................................................................
   1    10.00       9.960       9.902       9.836       9.772       9.700       9.631       9.563       9.478       9.394    
        9.330       9.266       9.201       9.138       9.035       8.911       8.773       8.665       8.608       8.542    
        8.463       8.399       8.336       8.261       8.161       7.964       7.741       7.584       7.430       7.285    
        7.096       6.795       6.409       5.982       5.540       5.070       4.605       4.218       3.713       3.165    
        2.715       2.285       1.807       1.408       1.161      0.9524      0.7868      0.6669      0.4476       0.000    
   2    10.00       9.959       9.906       9.840       9.775       9.711       9.643       9.554       9.461       9.392    
        9.336       9.282       9.227       9.149       9.031       8.902       8.772       8.665       8.607       8.533    
        8.454       8.406       8.355       8.277       8.151       7.958       7.756       7.594       7.438       7.297    
        7.086       6.770       6.366       5.880       5.408       4.954       4.551       4.178       3.664       3.134    
        2.683       2.198       1.763       1.449       1.217       1.037      0.8317      0.6492      0.3621       0.000    
   3    10.00       9.953       9.901       9.842       9.785       9.720       9.633       9.539       9.473       9.412    
        9.349       9.300       9.252       9.176       9.055       8.896       8.755       8.668       8.600       8.525    
        8.461       8.411       8.358       8.256       8.119       7.948       7.773       7.645       7.464       7.278    
        7.014       6.640       6.182       5.712       5.292       4.867       4.472       4.072       3.540       3.049    
        2.661       2.214       1.814       1.526       1.295       1.109      0.8655      0.5802      0.2630       0.000    
   4    10.00       9.953       9.902       9.845       9.781       9.705       9.616       9.544       9.487       9.424    
        9.369       9.327       9.274       9.188       9.071       8.902       8.756       8.674       8.598       8.531    
        8.462       8.401       8.335       8.228       8.094       7.941       7.782       7.626       7.467       7.256    
        6.925       6.434       5.949       5.592       5.239       4.799       4.324       3.855       3.430       3.057    
        2.693       2.277       1.900       1.639       1.379       1.142      0.8410      0.5220      0.2500       0.000    
   5    10.00       9.950       9.899       9.834       9.769       9.699       9.619       9.557       9.498       9.439    
        9.391       9.351       9.280       9.181       9.052       8.899       8.774       8.685       8.611       8.522    
        8.441       8.375       8.295       8.190       8.070       7.915       7.757       7.613       7.451       7.198    
        6.728       6.184       5.795       5.514       5.164       4.685       4.194       3.767       3.446       3.108    
        2.749       2.365       1.990       1.746       1.467       1.125      0.7657      0.4656      0.2342       0.000    
   6    10.00       9.943       9.882       9.829       9.769       9.693       9.625       9.572       9.510       9.454    
        9.409       9.360       9.272       9.161       9.049       8.920       8.795       8.693       8.596       8.495    
        8.413       8.337       8.268       8.173       8.021       7.870       7.741       7.595       7.372       6.994    
        6.480       5.989       5.665       5.419       5.102       4.627       4.136       3.771       3.499       3.191    
        2.860       2.520       2.135       1.808       1.438       1.061      0.6765      0.4019      0.2213       0.000    
   7    10.00       9.932       9.873       9.823       9.762       9.698       9.638       9.587       9.530       9.476    
        9.420       9.347       9.251       9.146       9.040       8.940       8.810       8.673       8.562       8.463    
        8.378       8.305       8.244       8.130       7.975       7.845       7.715       7.524       7.176       6.699    
        6.206       5.806       5.581       5.359       4.989       4.547       4.212       3.855       3.554       3.350    
        3.034       2.667       2.214       1.748       1.334      0.9219      0.5831      0.4050      0.2085       0.000    
   8    10.00       9.931       9.878       9.822       9.760       9.704       9.651       9.600       9.548       9.495    
        9.423       9.330       9.235       9.136       9.039       8.927       8.768       8.625       8.535       8.440    
        8.346       8.282       8.196       8.077       7.943       7.807       7.595       7.302       6.875       6.456    
        6.079       5.760       5.548       5.292       4.900       4.529       4.227       3.961       3.722       3.485    
        3.175       2.713       2.156       1.660       1.228      0.8635      0.6175      0.3969      0.1902       0.000    
   9    10.00       9.942       9.877       9.816       9.770       9.724       9.671       9.617       9.559       9.503    
        9.420       9.315       9.213       9.115       9.012       8.881       8.729       8.598       8.501       8.405    
        8.322       8.241       8.128       8.017       7.897       7.735       7.438       7.047       6.650       6.342    
        6.027       5.750       5.515       5.192       4.824       4.510       4.277       4.075       3.860       3.598    
        3.225       2.720       2.152       1.658       1.238      0.8830      0.6233      0.4005      0.2048       0.000    
  10    10.00       9.940       9.872       9.821       9.779       9.734       9.686       9.640       9.574       9.492    
        9.393       9.283       9.187       9.095       8.991       8.833       8.673       8.561       8.471       8.381    
        8.303       8.197       8.073       7.950       7.815       7.595       7.227       6.819       6.471       6.222    
        6.011       5.765       5.483       5.151       4.799       4.526       4.340       4.163       3.929       3.628    
        3.201       2.678       2.158       1.736       1.341      0.9723      0.6430      0.4254      0.2286       0.000    
  11    10.00       9.927       9.872       9.831       9.789       9.751       9.707       9.643       9.553       9.463    
        9.364       9.257       9.169       9.061       8.921       8.772       8.642       8.542       8.460       8.369    
        8.259       8.128       7.970       7.832       7.623       7.325       7.008       6.693       6.387       6.187    
        6.019       5.718       5.401       5.123       4.844       4.621       4.423       4.195       3.906       3.544    
        3.143       2.737       2.236       1.819       1.443       1.076      0.7227      0.4178      0.1752       0.000    
  12    10.00       9.930       9.879       9.835       9.800       9.760       9.710       9.622       9.518       9.432    
        9.341       9.232       9.125       8.999       8.878       8.743       8.618       8.531       8.444       8.326    
        8.156       7.972       7.792       7.608       7.339       7.110       6.906       6.603       6.335       6.160    
        5.963       5.693       5.415       5.149       4.933       4.718       4.462       4.184       3.833       3.467    
        3.127       2.759       2.275       1.864       1.509       1.125      0.7607      0.3943      0.1308       0.000    
  13    10.00       9.943       9.895       9.849       9.807       9.760       9.682       9.581       9.485       9.397    
        9.296       9.191       9.083       8.954       8.822       8.697       8.607       8.505       8.395       8.185    
        7.943       7.753       7.559       7.325       7.116       6.986       6.764       6.496       6.327       6.155    
        5.912       5.660       5.432       5.213       5.019       4.817       4.507       4.127       3.786       3.440    
        3.113       2.731       2.212       1.830       1.525       1.116      0.6997      0.3407      0.1043       0.000    
  14    10.00       9.956       9.915       9.866       9.809       9.732       9.631       9.531       9.445       9.351    
        9.248       9.151       9.031       8.900       8.786       8.677       8.551       8.429       8.230       7.933    
        7.707       7.525       7.281       7.092       6.978       6.855       6.640       6.457       6.301       6.123    
        5.897       5.684       5.505       5.295       5.077       4.866       4.517       4.100       3.746       3.389    
        3.053       2.579       2.085       1.784       1.438       1.071      0.7017      0.3159      8.9964E-02   0.000    
  15    10.00       9.965       9.922       9.868       9.800       9.690       9.568       9.481       9.401       9.309    
        9.230       9.132       8.982       8.836       8.734       8.581       8.429       8.303       8.019       7.704    
        7.501       7.271       7.060       6.972       6.893       6.757       6.571       6.395       6.261       6.107    
        5.906       5.733       5.568       5.374       5.149       4.888       4.481       4.021       3.649       3.322    
        2.961       2.483       2.092       1.715       1.304      0.9803      0.6277      0.2900      9.8102E-02   0.000    
  16    10.00       9.971       9.925       9.859       9.760       9.629       9.521       9.452       9.383       9.291    
        9.197       9.059       8.879       8.743       8.606       8.438       8.336       8.105       7.723       7.454    
        7.271       7.071       6.977       6.911       6.800       6.640       6.488       6.374       6.264       6.115    
        5.932       5.763       5.620       5.423       5.149       4.804       4.346       3.949       3.651       3.300    
        2.881       2.410       1.990       1.582       1.228      0.8691      0.5637      0.2932      0.1046       0.000    
  17    10.00       9.967       9.912       9.824       9.712       9.578       9.483       9.424       9.343       9.248    
        9.087       8.901       8.755       8.623       8.456       8.296       8.103       7.755       7.442       7.269    
        7.121       6.996       6.928       6.817       6.659       6.540       6.472       6.395       6.277       6.109    
        5.939       5.780       5.625       5.435       5.062       4.617       4.262       3.994       3.700       3.277    
        2.745       2.285       1.895       1.512       1.102      0.7256      0.4810      0.2665      0.1110       0.000    
  18    10.00       9.954       9.884       9.782       9.636       9.524       9.458       9.372       9.276       9.138    
        8.941       8.790       8.657       8.467       8.260       8.052       7.796       7.501       7.306       7.168    
        7.051       6.941       6.837       6.698       6.576       6.518       6.475       6.410       6.286       6.117    
        5.954       5.786       5.587       5.301       4.925       4.559       4.271       4.049       3.680       3.163    
        2.650       2.168       1.776       1.417       1.024      0.6698      0.4068      0.2229      0.1040       0.000    
  19    10.00       9.938       9.858       9.711       9.567       9.502       9.420       9.310       9.195       9.042    
        8.870       8.725       8.522       8.261       8.053       7.855       7.587       7.345       7.218       7.127    
        7.004       6.873       6.760       6.635       6.555       6.511       6.465       6.392       6.272       6.122    
        5.961       5.770       5.505       5.200       4.880       4.562       4.307       4.023       3.507       3.000    
        2.595       2.102       1.677       1.327      0.9408      0.6039      0.3662      0.2116      0.1059       0.000    
  20    10.00       9.920       9.797       9.645       9.540       9.467       9.377       9.261       9.126       8.986    
        8.810       8.600       8.334       8.101       7.922       7.689       7.448       7.321       7.213       7.092    
        6.965       6.831       6.694       6.594       6.537       6.487       6.424       6.348       6.240       6.101    
        5.941       5.741       5.464       5.170       4.868       4.585       4.311       3.874       3.334       2.904    
        2.457       1.981       1.605       1.255      0.8949      0.5427      0.3180      0.2134      0.1078       0.000    
  21    10.00       9.874       9.748       9.625       9.516       9.434       9.337       9.190       9.055       8.922    
        8.698       8.439       8.196       8.009       7.820       7.601       7.428       7.319       7.200       7.071    
        6.920       6.770       6.649       6.549       6.470       6.404       6.353       6.284       6.176       6.054    
        5.905       5.692       5.431       5.154       4.869       4.588       4.202       3.759       3.286       2.775    
        2.326       1.880       1.555       1.234      0.7771      0.4578      0.3257      0.2375      0.1141       0.000    
  22    10.00       9.856       9.708       9.589       9.497       9.400       9.260       9.116       8.998       8.825    
        8.593       8.328       8.122       7.968       7.763       7.562       7.418       7.308       7.192       7.041    
        6.871       6.721       6.571       6.429       6.330       6.282       6.245       6.171       6.091       5.996    
        5.842       5.641       5.417       5.141       4.855       4.576       4.166       3.713       3.158       2.654    
        2.267       1.862       1.502       1.027      0.6382      0.4583      0.3443      0.2288      9.0789E-02   0.000    
  23    10.00       9.825       9.682       9.583       9.484       9.341       9.185       9.074       8.927       8.749    
        8.517       8.283       8.123       7.930       7.710       7.536       7.415       7.316       7.188       7.011    
        6.830       6.656       6.462       6.223       6.006       5.977       6.032       6.029       5.999       5.922    
        5.791       5.597       5.376       5.136       4.849       4.545       4.155       3.589       3.005       2.591    
        2.220       1.761       1.246      0.8356      0.6213      0.4696      0.3432      0.2175      0.1012       0.000    
  24    10.00       9.802       9.699       9.586       9.447       9.292       9.169       9.049       8.906       8.702    
        8.489       8.306       8.130       7.896       7.664       7.527       7.429       7.328       7.177       6.999    
        6.821       6.624       6.329       5.778       4.921       5.276       5.671       5.859       5.900       5.848    
        5.725       5.546       5.346       5.091       4.812       4.502       4.017       3.422       2.925       2.486    
        2.037       1.555       1.101      0.7952      0.6169      0.4660      0.3347      0.2535      0.1395       0.000    
  25    10.00       9.828       9.719       9.584       9.438       9.299       9.173       9.059       8.884       8.681    
        8.502       8.325       8.108       7.850       7.670       7.547       7.439       7.322       7.183       7.022    
        6.835       6.643       6.117       4.901       1.969       4.452       5.340       5.708       5.817       5.778    
        5.667       5.513       5.297       5.000       4.710       4.348       3.857       3.286       2.835       2.361    
        1.844       1.391       1.022      0.7850      0.6408      0.5005      0.3655      0.2693      0.1757       0.000    
  26    10.00       9.853       9.751       9.606       9.455       9.333       9.202       9.057       8.877       8.717    
        8.560       8.320       8.045       7.826       7.696       7.588       7.461       7.311       7.164       7.027    
        6.887       6.687       6.232       5.400       4.475       5.011       5.515       5.747       5.807       5.732    
        5.595       5.447       5.209       4.924       4.647       4.258       3.624       3.105       2.730       2.155    
        1.598       1.225       1.009      0.8507      0.6976      0.5423      0.4018      0.2942      0.1756       0.000    
  27    10.00       9.886       9.762       9.639       9.504       9.362       9.232       9.090       8.926       8.771    
        8.556       8.269       8.030       7.852       7.738       7.613       7.446       7.283       7.164       7.058    
        6.946       6.752       6.429       6.012       5.567       5.616       5.771       5.848       5.820       5.690    
        5.540       5.387       5.164       4.881       4.521       3.938       3.360       2.963       2.398       1.843    
        1.449       1.207       1.051      0.9166      0.7753      0.5963      0.4291      0.3211      0.2158       0.000    
  28    10.00       9.897       9.792       9.674       9.552       9.417       9.281       9.137       8.980       8.797    
        8.529       8.266       8.055       7.882       7.762       7.630       7.487       7.330       7.180       7.078    
        6.980       6.845       6.645       6.371       6.117       5.987       5.962       5.940       5.838       5.676    
        5.490       5.320       5.074       4.713       4.223       3.645       3.175       2.648       2.102       1.738    
        1.454       1.256       1.101      0.9678      0.8226      0.6513      0.4858      0.3649      0.2224       0.000    
  29    10.00       9.902       9.803       9.714       9.596       9.472       9.341       9.194       9.026       8.778    
        8.511       8.278       8.072       7.926       7.781       7.637       7.504       7.377       7.239       7.113    
        7.010       6.897       6.763       6.599       6.374       6.218       6.112       6.010       5.855       5.613    
        5.399       5.150       4.888       4.436       3.902       3.416       2.950       2.432       2.022       1.762    
        1.531       1.313       1.144       1.014      0.8726      0.6970      0.5266      0.3853      0.2246       0.000    
  30    10.00       9.910       9.828       9.750       9.647       9.533       9.414       9.249       9.036       8.779    
        8.502       8.260       8.086       7.936       7.788       7.649       7.534       7.427       7.300       7.162    
        7.043       6.937       6.818       6.690       6.507       6.320       6.191       6.038       5.815       5.532    
        5.231       4.895       4.586       4.160       3.758       3.317       2.845       2.379       2.083       1.847    
        1.586       1.372       1.209       1.054      0.8947      0.7393      0.5607      0.4013      0.2424       0.000    
  31    10.00       9.925       9.854       9.781       9.705       9.614       9.483       9.285       9.034       8.765    
        8.495       8.268       8.098       7.940       7.807       7.673       7.554       7.467       7.333       7.197    
        7.078       6.958       6.840       6.678       6.506       6.362       6.222       6.039       5.750       5.404    
        5.006       4.654       4.369       4.068       3.685       3.238       2.796       2.419       2.183       1.970    
        1.699       1.452       1.262       1.098      0.9398      0.7752      0.5964      0.4284      0.2357       0.000    
  32    10.00       9.937       9.882       9.818       9.744       9.660       9.528       9.300       9.062       8.814    
        8.524       8.284       8.111       7.959       7.817       7.698       7.592       7.477       7.358       7.226    
        7.082       6.948       6.796       6.617       6.487       6.392       6.240       5.970       5.590       5.191    
        4.832       4.542       4.279       4.009       3.651       3.256       2.888       2.560       2.307       2.067    
        1.814       1.557       1.354       1.163      0.9820      0.8334      0.6504      0.4284      0.2127       0.000    
  33    10.00       9.945       9.900       9.848       9.776       9.680       9.509       9.288       9.088       8.853    
        8.565       8.322       8.138       7.964       7.825       7.725       7.625       7.504       7.371       7.222    
        7.070       6.913       6.727       6.580       6.486       6.389       6.128       5.772       5.418       5.091    
        4.778       4.537       4.289       3.967       3.638       3.286       2.974       2.710       2.446       2.182    
        1.947       1.703       1.481       1.280       1.080      0.9037      0.6982      0.4367      0.2057       0.000    
  34    10.00       9.950       9.920       9.874       9.784       9.649       9.483       9.319       9.111       8.854    
        8.594       8.351       8.147       7.967       7.846       7.765       7.652       7.517       7.355       7.204    
        7.045       6.851       6.678       6.552       6.447       6.268       5.966       5.677       5.352       5.008    
        4.755       4.563       4.332       4.020       3.695       3.379       3.093       2.855       2.586       2.322    
        2.098       1.874       1.639       1.434       1.221       1.014      0.7532      0.4837      0.2550       0.000    
  35    10.00       9.959       9.924       9.865       9.751       9.608       9.486       9.345       9.150       8.869    
        8.587       8.355       8.144       7.991       7.891       7.797       7.664       7.503       7.333       7.158    
        6.966       6.777       6.601       6.478       6.359       6.193       5.910       5.586       5.251       4.941    
        4.763       4.572       4.335       4.098       3.825       3.495       3.211       3.020       2.749       2.456    
        2.246       2.023       1.799       1.598       1.361       1.130      0.8675      0.5789      0.2893       0.000    
  36    10.00       9.956       9.906       9.839       9.725       9.588       9.478       9.344       9.145       8.878    
        8.580       8.324       8.166       8.048       7.947       7.819       7.651       7.481       7.283       7.030    
        6.829       6.671       6.524       6.414       6.307       6.113       5.809       5.490       5.160       4.903    
        4.743       4.581       4.368       4.149       3.918       3.620       3.339       3.132       2.895       2.581    
        2.346       2.120       1.892       1.726       1.498       1.242      0.9802      0.6789      0.3453       0.000    
  37    10.00       9.941       9.885       9.812       9.696       9.571       9.446       9.314       9.130       8.839    
        8.535       8.326       8.229       8.112       7.971       7.832       7.624       7.407       7.134       6.870    
        6.741       6.616       6.474       6.352       6.219       5.980       5.710       5.374       5.099       4.923    
        4.770       4.598       4.382       4.194       3.955       3.671       3.451       3.251       2.989       2.676    
        2.395       2.175       1.994       1.809       1.592       1.355       1.104      0.7661      0.4150       0.000    
  38    10.00       9.934       9.861       9.782       9.675       9.551       9.410       9.272       9.074       8.803    
        8.569       8.402       8.277       8.163       7.994       7.763       7.514       7.227       6.929       6.776    
        6.676       6.514       6.364       6.266       6.108       5.876       5.556       5.267       5.120       4.982    
        4.811       4.620       4.417       4.227       3.994       3.736       3.540       3.336       3.024       2.698    
        2.454       2.251       2.067       1.882       1.689       1.461       1.201      0.8765      0.4547       0.000    
  39    10.00       9.916       9.841       9.762       9.656       9.516       9.364       9.217       9.035       8.815    
        8.631       8.504       8.358       8.185       7.912       7.600       7.283       6.974       6.802       6.714    
        6.559       6.381       6.274       6.179       6.027       5.760       5.463       5.291       5.164       5.018    
        4.834       4.655       4.450       4.248       4.051       3.840       3.614       3.377       3.057       2.736    
        2.480       2.276       2.133       1.986       1.777       1.543       1.282      0.9286      0.4547       0.000    
  40    10.00       9.901       9.828       9.748       9.640       9.493       9.335       9.186       9.032       8.847    
        8.693       8.580       8.383       8.086       7.730       7.378       7.061       6.859       6.753       6.630    
        6.454       6.305       6.214       6.088       5.913       5.698       5.513       5.345       5.196       5.057    
        4.887       4.689       4.483       4.294       4.114       3.900       3.657       3.420       3.072       2.722    
        2.491       2.322       2.173       2.047       1.835       1.575       1.335      0.9648      0.4763       0.000    
  41    10.00       9.908       9.822       9.733       9.612       9.478       9.340       9.205       9.056       8.890    
        8.742       8.595       8.313       7.927       7.534       7.218       6.976       6.809       6.697       6.552    
        6.371       6.246       6.136       6.003       5.855       5.707       5.574       5.413       5.235       5.075    
        4.922       4.735       4.527       4.356       4.169       3.960       3.712       3.382       2.997       2.728    
        2.541       2.365       2.228       2.069       1.846       1.588       1.376       1.024      0.5243       0.000    
  42    10.00       9.910       9.814       9.731       9.626       9.501       9.362       9.211       9.076       8.946    
        8.762       8.487       8.130       7.732       7.380       7.140       6.931       6.776       6.641       6.466    
        6.301       6.183       6.069       5.977       5.856       5.750       5.627       5.442       5.251       5.109    
        4.977       4.774       4.552       4.392       4.232       3.998       3.679       3.284       2.943       2.739    
        2.589       2.440       2.271       2.064       1.832       1.625       1.411       1.066      0.5485       0.000    
  43    10.00       9.911       9.822       9.737       9.653       9.541       9.401       9.251       9.102       8.910    
        8.635       8.317       7.953       7.571       7.303       7.103       6.905       6.739       6.575       6.401    
        6.249       6.138       6.057       5.987       5.882       5.769       5.647       5.465       5.296       5.181    
        5.013       4.791       4.583       4.425       4.241       3.955       3.581       3.200       2.963       2.802    
        2.644       2.483       2.276       2.053       1.842       1.641       1.449       1.063      0.4788       0.000    
  44    10.00       9.905       9.824       9.750       9.657       9.570       9.451       9.266       9.061       8.790    
        8.510       8.176       7.779       7.503       7.297       7.075       6.859       6.667       6.488       6.334    
        6.226       6.140       6.066       5.994       5.903       5.787       5.644       5.502       5.371       5.227    
        5.065       4.865       4.630       4.407       4.191       3.899       3.509       3.181       2.991       2.835    
        2.684       2.506       2.299       2.100       1.879       1.656       1.405      0.9101      0.4022       0.000    
  45    10.00       9.905       9.838       9.753       9.665       9.587       9.410       9.197       8.954       8.686    
        8.452       8.051       7.683       7.478       7.265       7.022       6.776       6.579       6.423       6.314    
        6.238       6.163       6.086       5.999       5.902       5.795       5.676       5.556       5.449       5.301    
        5.107       4.893       4.655       4.386       4.141       3.824       3.458       3.200       3.044       2.888    
        2.691       2.486       2.304       2.124       1.931       1.692       1.267      0.7628      0.3863       0.000    
  46    10.00       9.922       9.850       9.759       9.662       9.513       9.326       9.149       8.926       8.665    
        8.326       7.958       7.663       7.406       7.189       6.948       6.702       6.549       6.433       6.333    
        6.263       6.194       6.101       5.998       5.902       5.808       5.711       5.604       5.497       5.360    
        5.180       4.956       4.692       4.388       4.047       3.707       3.441       3.265       3.092       2.912    
        2.686       2.472       2.291       2.147       1.939       1.605       1.136      0.7184      0.3650       0.000    
  47    10.00       9.939       9.872       9.777       9.608       9.429       9.268       9.116       8.916       8.590    
        8.225       7.883       7.599       7.383       7.151       6.884       6.672       6.536       6.444       6.362    
        6.287       6.206       6.114       6.012       5.918       5.837       5.751       5.646       5.522       5.387    
        5.227       5.028       4.687       4.284       3.964       3.714       3.483       3.332       3.173       2.923    
        2.654       2.429       2.261       2.143       1.883       1.485       1.054      0.6912      0.3548       0.000    
  48    10.00       9.946       9.875       9.733       9.562       9.413       9.242       9.088       8.875       8.530    
        8.133       7.823       7.593       7.336       7.065       6.826       6.667       6.535       6.446       6.385    
        6.310       6.212       6.111       6.023       5.947       5.879       5.797       5.680       5.534       5.376    
        5.211       4.982       4.630       4.300       4.020       3.772       3.556       3.385       3.180       2.880    
        2.596       2.415       2.275       2.055       1.707       1.351       1.006      0.6961      0.3745       0.000    
  49    10.00       9.943       9.842       9.714       9.574       9.401       9.229       9.056       8.792       8.427    
        8.085       7.795       7.518       7.274       7.065       6.840       6.635       6.515       6.457       6.398    
        6.327       6.217       6.105       6.032       5.970       5.916       5.824       5.682       5.516       5.365    
        5.192       4.913       4.615       4.394       4.138       3.847       3.585       3.379       3.142       2.823    
        2.593       2.435       2.226       1.894       1.585       1.294      0.9949      0.6960      0.3732       0.000    
  50    10.00       9.935       9.830       9.700       9.573       9.411       9.218       9.003       8.724       8.436    
        8.078       7.716       7.458       7.264       7.088       6.834       6.607       6.517       6.465       6.406    
        6.335       6.221       6.107       6.036       5.983       5.933       5.829       5.666       5.498       5.355    
        5.177       4.890       4.660       4.461       4.193       3.904       3.630       3.347       3.024       2.757    
        2.638       2.459       2.136       1.803       1.574       1.292       1.009      0.6816      0.3039       0.000    

 HEAD WILL BE SAVED ON UNIT   51 AT END OF TIME STEP   5, STRESS PERIOD    2

 DRAWDOWN WILL BE SAVED ON UNIT   52 AT END OF TIME STEP   5, STRESS PERIOD    2
1
  VOLUMETRIC BUDGET FOR ENTIRE MODEL AT END OF TIME STEP  5 IN STRESS PERIOD   2
  ------------------------------------------------------------------------------

     CUMULATIVE VOLUMES      L**3       RATES FOR THIS TIME STEP      L**3/T
     ------------------                 ------------------------

           IN:                                      IN:
           ---                                      ---
             STORAGE =        2500.0061               STORAGE =         499.9991
       CONSTANT HEAD =        3582.5342         CONSTANT HEAD =         597.0900
               WELLS =           0.0000                 WELLS =           0.0000

            TOTAL IN =        6082.5400              TOTAL IN =        1097.0891

          OUT:                                     OUT:
          ----                                     ----
             STORAGE =       8.7382E-03               STORAGE =       6.0752E-04
       CONSTANT HEAD =        3582.5317         CONSTANT HEAD =         597.0886
               WELLS =        2500.0000                 WELLS =         500.0000

           TOTAL OUT =        6082.5405             TOTAL OUT =        1097.0892

            IN - OUT =      -4.8828E-04              IN - OUT =      -1.2207E-04

 PERCENT DISCREPANCY =           0.00     PERCENT DISCREPANCY =           0.00






          TIME SUMMARY AT END OF TIME STEP   5 IN STRESS PERIOD    2
                    SECONDS     MINUTES      HOURS       DAYS        YEARS
                    -----------------------------------------------------------
   TIME STEP LENGTH  86400.      1440.0      24.000      1.0000     2.73785E-03
 STRESS PERIOD TIME 4.32000E+05  7200.0      120.00      5.0000     1.36893E-02
         TOTAL TIME 5.18400E+05  8640.0      144.00      6.0000     1.64271E-02
1
 
 SOLVING FOR HEAD 

 OUTPUT CONTROL FOR STRESS PERIOD    2   TIME STEP   6
    SAVE HEAD FOR ALL LAYERS
    SAVE DRAWDOWN FOR ALL LAYERS
    SAVE BUDGET
    PRINT HEAD FOR ALL LAYERS
    PRINT BUDGET
 UBDSV1 SAVING "         STORAGE" ON UNIT  53 AT TIME STEP  6, STRESS PERIOD   2
 UBDSV2 SAVING "   CONSTANT HEAD" ON UNIT  53 AT TIME STEP  6, STRESS PERIOD   2
 UBDSV1 SAVING "FLOW RIGHT FACE " ON UNIT  53 AT TIME STEP  6, STRESS PERIOD   2
 UBDSV1 SAVING "FLOW FRONT FACE " ON UNIT  53 AT TIME STEP  6, STRESS PERIOD   2
1
              HEAD IN LAYER   1 AT END OF TIME STEP   6 IN STRESS PERIOD    2
  ---------------------------------------------------------------------------

            1           2           3           4           5           6           7           8           9          10
           11          12          13          14          15          16          17          18          19          20
           21          22          23          24          25          26          27          28          29          30
           31          32          33          34          35          36          37          38          39          40
           41          42          43          44          45          46          47          48          49          50
 ........................................................................................................................
   1    10.00       9.960       9.902       9.836       9.772       9.700       9.631       9.563       9.478       9.394    
        9.330       9.266       9.201       9.138       9.035       8.911       8.773       8.665       8.608       8.542    
        8.463       8.399       8.336       8.261       8.161       7.964       7.741       7.584       7.430       7.285    
        7.096       6.795       6.409       5.982       5.540       5.070       4.605       4.218       3.713       3.165    
        2.715       2.285       1.807       1.408       1.161      0.9524      0.7868      0.6669      0.4476       0.000    
   2    10.00       9.959       9.906       9.840       9.775       9.711       9.643       9.554       9.461       9.392    
        9.336       9.282       9.227       9.149       9.031       8.902       8.772       8.665       8.607       8.533    
        8.454       8.406       8.355       8.277       8.151       7.958       7.756       7.594       7.438       7.297    
        7.086       6.770       6.366       5.880       5.408       4.954       4.551       4.178       3.664       3.134    
        2.683       2.198       1.763       1.449       1.217       1.037      0.8317      0.6492      0.3621       0.000    
   3    10.00       9.953       9.901       9.842       9.785       9.720       9.633       9.539       9.473       9.412    
        9.349       9.300       9.251       9.176       9.055       8.896       8.755       8.668       8.600       8.525    
        8.461       8.411       8.358       8.256       8.119       7.948       7.773       7.645       7.464       7.278    
        7.014       6.640       6.182       5.712       5.292       4.867       4.472       4.072       3.540       3.049    
        2.661       2.214       1.814       1.526       1.295       1.109      0.8655      0.5802      0.2630       0.000    
   4    10.00       9.953       9.902       9.845       9.781       9.705       9.616       9.544       9.487       9.424    
        9.369       9.327       9.274       9.188       9.071       8.902       8.756       8.674       8.598       8.531    
        8.462       8.401       8.335       8.228       8.094       7.941       7.782       7.626       7.467       7.256    
        6.925       6.434       5.949       5.592       5.239       4.799       4.324       3.855       3.430       3.057    
        2.693       2.277       1.900       1.639       1.379       1.142      0.8410      0.5220      0.2500       0.000    
   5    10.00       9.950       9.899       9.834       9.769       9.699       9.619       9.557       9.498       9.439    
        9.391       9.351       9.280       9.181       9.052       8.899       8.774       8.685       8.611       8.522    
        8.441       8.374       8.295       8.190       8.070       7.915       7.757       7.613       7.451       7.198    
        6.728       6.184       5.795       5.514       5.164       4.685       4.194       3.767       3.446       3.108    
        2.749       2.365       1.990       1.746       1.467       1.125      0.7657      0.4656      0.2342       0.000    
   6    10.00       9.943       9.882       9.829       9.769       9.693       9.625       9.572       9.510       9.454    
        9.409       9.360       9.272       9.161       9.049       8.920       8.795       8.693       8.596       8.494    
        8.413       8.337       8.268       8.173       8.021       7.870       7.741       7.595       7.371       6.994    
        6.480       5.989       5.665       5.419       5.102       4.627       4.136       3.771       3.499       3.191    
        2.860       2.520       2.135       1.808       1.438       1.061      0.6765      0.4019      0.2213       0.000    
   7    10.00       9.932       9.873       9.823       9.762       9.698       9.638       9.587       9.530       9.476    
        9.420       9.347       9.251       9.146       9.040       8.940       8.810       8.673       8.562       8.463    
        8.378       8.305       8.244       8.129       7.975       7.845       7.715       7.524       7.176       6.699    
        6.206       5.806       5.581       5.359       4.989       4.547       4.212       3.855       3.554       3.350    
        3.034       2.667       2.214       1.748       1.334      0.9219      0.5831      0.4050      0.2085       0.000    
   8    10.00       9.931       9.878       9.822       9.760       9.704       9.651       9.600       9.548       9.495    
        9.423       9.330       9.235       9.136       9.039       8.927       8.767       8.625       8.535       8.440    
        8.346       8.282       8.196       8.077       7.943       7.807       7.595       7.302       6.875       6.456    
        6.079       5.759       5.548       5.292       4.899       4.529       4.227       3.961       3.722       3.485    
        3.175       2.713       2.156       1.660       1.228      0.8635      0.6175      0.3969      0.1902       0.000    
   9    10.00       9.942       9.877       9.816       9.770       9.724       9.671       9.617       9.559       9.503    
        9.420       9.315       9.213       9.115       9.012       8.881       8.729       8.598       8.501       8.405    
        8.321       8.241       8.128       8.016       7.896       7.735       7.437       7.047       6.649       6.341    
        6.026       5.750       5.514       5.192       4.824       4.510       4.277       4.075       3.860       3.598    
        3.225       2.720       2.152       1.658       1.238      0.8830      0.6233      0.4005      0.2048       0.000    
  10    10.00       9.940       9.872       9.821       9.779       9.734       9.686       9.640       9.574       9.492    
        9.393       9.283       9.187       9.095       8.991       8.833       8.673       8.561       8.471       8.381    
        8.302       8.197       8.072       7.950       7.814       7.594       7.226       6.818       6.470       6.221    
        6.010       5.765       5.483       5.151       4.799       4.526       4.340       4.163       3.929       3.628    
        3.201       2.678       2.158       1.736       1.341      0.9723      0.6430      0.4254      0.2286       0.000    
  11    10.00       9.927       9.872       9.831       9.789       9.751       9.707       9.643       9.553       9.463    
        9.364       9.257       9.169       9.061       8.921       8.772       8.641       8.542       8.460       8.369    
        8.258       8.128       7.969       7.831       7.621       7.323       7.006       6.691       6.385       6.186    
        6.018       5.717       5.400       5.123       4.844       4.621       4.423       4.195       3.906       3.544    
        3.143       2.737       2.236       1.819       1.443       1.076      0.7227      0.4178      0.1752       0.000    
  12    10.00       9.930       9.879       9.835       9.800       9.760       9.710       9.622       9.518       9.432    
        9.341       9.232       9.125       8.999       8.878       8.743       8.618       8.531       8.444       8.325    
        8.155       7.970       7.789       7.605       7.336       7.106       6.903       6.600       6.332       6.157    
        5.961       5.692       5.414       5.148       4.933       4.718       4.462       4.184       3.833       3.467    
        3.127       2.759       2.275       1.864       1.509       1.125      0.7607      0.3943      0.1308       0.000    
  13    10.00       9.943       9.895       9.849       9.807       9.760       9.682       9.581       9.485       9.397    
        9.296       9.191       9.083       8.954       8.822       8.697       8.606       8.505       8.395       8.184    
        7.941       7.750       7.554       7.320       7.109       6.979       6.758       6.490       6.322       6.151    
        5.909       5.657       5.430       5.212       5.018       4.816       4.507       4.126       3.786       3.440    
        3.113       2.731       2.212       1.830       1.525       1.116      0.6997      0.3407      0.1043       0.000    
  14    10.00       9.956       9.915       9.866       9.809       9.732       9.631       9.531       9.445       9.351    
        9.248       9.151       9.031       8.900       8.786       8.677       8.550       8.428       8.229       7.930    
        7.703       7.519       7.272       7.082       6.968       6.845       6.630       6.447       6.293       6.116    
        5.892       5.680       5.502       5.293       5.076       4.865       4.517       4.100       3.746       3.389    
        3.053       2.579       2.085       1.784       1.438       1.071      0.7017      0.3159      8.9964E-02   0.000    
  15    10.00       9.965       9.922       9.868       9.800       9.690       9.568       9.481       9.401       9.309    
        9.230       9.132       8.981       8.836       8.734       8.580       8.428       8.301       8.016       7.698    
        7.493       7.260       7.046       6.957       6.878       6.742       6.556       6.381       6.248       6.097    
        5.899       5.728       5.564       5.371       5.147       4.887       4.481       4.021       3.649       3.322    
        2.961       2.483       2.092       1.715       1.304      0.9803      0.6277      0.2900      9.8102E-02   0.000    
  16    10.00       9.971       9.925       9.859       9.760       9.629       9.521       9.452       9.383       9.291    
        9.197       9.059       8.879       8.742       8.605       8.437       8.335       8.102       7.717       7.443    
        7.257       7.053       6.958       6.892       6.780       6.618       6.467       6.355       6.248       6.103    
        5.923       5.756       5.615       5.419       5.147       4.803       4.346       3.949       3.651       3.300    
        2.881       2.410       1.990       1.582       1.228      0.8691      0.5637      0.2932      0.1046       0.000    
  17    10.00       9.967       9.912       9.824       9.712       9.578       9.483       9.424       9.343       9.248    
        9.087       8.900       8.755       8.622       8.455       8.294       8.100       7.748       7.429       7.252    
        7.100       6.973       6.903       6.791       6.631       6.510       6.443       6.371       6.258       6.095    
        5.929       5.773       5.620       5.431       5.060       4.616       4.262       3.994       3.700       3.277    
        2.745       2.285       1.895       1.512       1.102      0.7256      0.4810      0.2665      0.1110       0.000    
  18    10.00       9.954       9.884       9.782       9.636       9.524       9.458       9.372       9.276       9.138    
        8.941       8.790       8.657       8.466       8.258       8.048       7.789       7.487       7.286       7.144    
        7.024       6.911       6.806       6.663       6.540       6.483       6.443       6.382       6.263       6.100    
        5.942       5.778       5.581       5.298       4.924       4.558       4.270       4.048       3.680       3.163    
        2.650       2.168       1.776       1.417       1.024      0.6698      0.4068      0.2229      0.1040       0.000    
  19    10.00       9.938       9.858       9.711       9.567       9.502       9.420       9.310       9.195       9.042    
        8.870       8.725       8.521       8.259       8.049       7.847       7.574       7.324       7.193       7.098    
        6.971       6.836       6.720       6.593       6.514       6.472       6.429       6.359       6.244       6.100    
        5.946       5.759       5.499       5.197       4.878       4.561       4.307       4.023       3.507       3.000    
        2.595       2.102       1.677       1.327      0.9408      0.6039      0.3662      0.2116      0.1059       0.000    
  20    10.00       9.920       9.797       9.645       9.540       9.467       9.377       9.261       9.126       8.986    
        8.810       8.599       8.332       8.098       7.916       7.678       7.429       7.298       7.186       7.060    
        6.928       6.788       6.648       6.547       6.491       6.442       6.381       6.310       6.207       6.075    
        5.923       5.729       5.458       5.166       4.866       4.584       4.311       3.874       3.334       2.904    
        2.457       1.981       1.605       1.255      0.8949      0.5427      0.3180      0.2134      0.1078       0.000    
  21    10.00       9.874       9.748       9.625       9.516       9.434       9.337       9.190       9.055       8.922    
        8.697       8.438       8.194       8.005       7.812       7.587       7.408       7.294       7.170       7.034    
        6.876       6.720       6.596       6.494       6.415       6.349       6.300       6.238       6.136       6.023    
        5.882       5.678       5.423       5.150       4.867       4.587       4.201       3.759       3.286       2.775    
        2.326       1.880       1.555       1.234      0.7771      0.4578      0.3257      0.2375      0.1141       0.000    
  22    10.00       9.856       9.708       9.589       9.497       9.400       9.260       9.116       8.998       8.824    
        8.592       8.326       8.118       7.963       7.753       7.546       7.396       7.281       7.158       6.999    
        6.820       6.663       6.507       6.362       6.262       6.215       6.180       6.113       6.043       5.957    
        5.816       5.623       5.407       5.135       4.852       4.575       4.166       3.713       3.158       2.654    
        2.267       1.862       1.502       1.027      0.6382      0.4583      0.3443      0.2288      9.0789E-02   0.000    
  23    10.00       9.825       9.682       9.583       9.484       9.341       9.185       9.074       8.927       8.749    
        8.516       8.281       8.120       7.924       7.699       7.519       7.393       7.288       7.153       6.965    
        6.772       6.590       6.388       6.141       5.918       5.888       5.950       5.958       5.942       5.878    
        5.760       5.578       5.364       5.130       4.846       4.544       4.154       3.589       3.005       2.591    
        2.220       1.761       1.246      0.8356      0.6213      0.4696      0.3432      0.2175      0.1012       0.000    
  24    10.00       9.802       9.699       9.586       9.447       9.292       9.169       9.049       8.906       8.702    
        8.488       8.304       8.126       7.889       7.651       7.509       7.406       7.299       7.138       6.950    
        6.761       6.553       6.246       5.677       4.799       5.153       5.564       5.773       5.834       5.799    
        5.692       5.526       5.334       5.085       4.809       4.501       4.017       3.421       2.925       2.486    
        2.037       1.555       1.101      0.7952      0.6169      0.4660      0.3347      0.2535      0.1395       0.000    
  25    10.00       9.828       9.719       9.584       9.438       9.299       9.173       9.059       8.883       8.680    
        8.500       8.323       8.104       7.842       7.657       7.530       7.417       7.293       7.145       6.973    
        6.774       6.570       6.020       4.776       1.815       4.307       5.215       5.609       5.745       5.729    
        5.634       5.492       5.285       4.995       4.707       4.347       3.857       3.286       2.835       2.361    
        1.844       1.391       1.022      0.7850      0.6408      0.5005      0.3655      0.2693      0.1757       0.000    
  26    10.00       9.853       9.751       9.606       9.455       9.333       9.202       9.057       8.876       8.716    
        8.559       8.318       8.041       7.818       7.685       7.572       7.440       7.281       7.124       6.978    
        6.828       6.615       6.134       5.273       4.327       4.865       5.387       5.646       5.735       5.687    
        5.567       5.429       5.199       4.919       4.645       4.256       3.623       3.105       2.730       2.155    
        1.598       1.225       1.009      0.8507      0.6976      0.5423      0.4018      0.2942      0.1756       0.000    
  27    10.00       9.886       9.762       9.639       9.504       9.362       9.232       9.090       8.926       8.770    
        8.555       8.267       8.026       7.845       7.728       7.599       7.425       7.252       7.126       7.012    
        6.892       6.684       6.341       5.902       5.436       5.487       5.657       5.757       5.758       5.652    
        5.516       5.371       5.155       4.876       4.519       3.937       3.359       2.963       2.398       1.843    
        1.449       1.207       1.051      0.9166      0.7753      0.5963      0.4291      0.3211      0.2158       0.000    
  28    10.00       9.897       9.792       9.674       9.552       9.417       9.281       9.137       8.980       8.797    
        8.528       8.265       8.052       7.876       7.754       7.618       7.469       7.304       7.144       7.035    
        6.931       6.787       6.573       6.280       6.013       5.883       5.869       5.868       5.786       5.643    
        5.471       5.307       5.067       4.710       4.222       3.645       3.175       2.648       2.102       1.738    
        1.454       1.256       1.101      0.9678      0.8226      0.6513      0.4858      0.3649      0.2224       0.000    
  29    10.00       9.902       9.803       9.714       9.596       9.472       9.341       9.194       9.026       8.777    
        8.511       8.276       8.069       7.922       7.775       7.627       7.489       7.356       7.210       7.076    
        6.966       6.847       6.705       6.531       6.296       6.141       6.045       5.955       5.818       5.591    
        5.386       5.142       4.884       4.435       3.902       3.416       2.949       2.432       2.022       1.762    
        1.531       1.313       1.144       1.014      0.8726      0.6970      0.5266      0.3853      0.2246       0.000    
  30    10.00       9.910       9.828       9.750       9.647       9.533       9.414       9.249       9.035       8.779    
        8.501       8.259       8.084       7.933       7.782       7.640       7.522       7.411       7.278       7.133    
        7.007       6.896       6.772       6.641       6.458       6.273       6.152       6.004       5.794       5.520    
        5.224       4.891       4.584       4.159       3.758       3.317       2.845       2.379       2.083       1.847    
        1.586       1.372       1.209       1.054      0.8947      0.7393      0.5607      0.4013      0.2424       0.000    
  31    10.00       9.925       9.854       9.781       9.705       9.614       9.483       9.285       9.034       8.765    
        8.495       8.266       8.097       7.937       7.802       7.666       7.545       7.456       7.317       7.176    
        7.053       6.930       6.809       6.649       6.481       6.338       6.199       6.019       5.738       5.397    
        5.003       4.652       4.368       4.067       3.685       3.238       2.796       2.419       2.183       1.970    
        1.699       1.452       1.262       1.098      0.9398      0.7752      0.5964      0.4284      0.2357       0.000    
  32    10.00       9.937       9.882       9.818       9.744       9.660       9.528       9.300       9.062       8.814    
        8.524       8.283       8.110       7.957       7.813       7.693       7.585       7.468       7.348       7.212    
        7.065       6.929       6.778       6.601       6.472       6.378       6.226       5.960       5.585       5.188    
        4.831       4.541       4.279       4.008       3.651       3.256       2.888       2.560       2.307       2.067    
        1.814       1.557       1.354       1.163      0.9820      0.8334      0.6504      0.4284      0.2127       0.000    
  33    10.00       9.945       9.900       9.848       9.776       9.680       9.509       9.288       9.088       8.853    
        8.565       8.321       8.137       7.963       7.823       7.722       7.621       7.498       7.363       7.213    
        7.060       6.902       6.717       6.569       6.475       6.378       6.121       5.768       5.416       5.090    
        4.777       4.536       4.289       3.967       3.638       3.286       2.974       2.710       2.446       2.182    
        1.947       1.703       1.481       1.280       1.080      0.9037      0.6982      0.4367      0.2057       0.000    
  34    10.00       9.950       9.920       9.874       9.784       9.649       9.483       9.319       9.111       8.854    
        8.594       8.351       8.146       7.966       7.844       7.763       7.650       7.514       7.350       7.198    
        7.040       6.845       6.672       6.545       6.440       6.263       5.963       5.676       5.351       5.007    
        4.755       4.563       4.332       4.020       3.695       3.379       3.093       2.855       2.586       2.322    
        2.098       1.874       1.639       1.434       1.221       1.014      0.7532      0.4837      0.2550       0.000    
  35    10.00       9.959       9.924       9.865       9.751       9.608       9.486       9.345       9.150       8.869    
        8.587       8.355       8.143       7.990       7.890       7.795       7.662       7.500       7.330       7.155    
        6.963       6.774       6.598       6.475       6.356       6.190       5.909       5.586       5.251       4.941    
        4.763       4.572       4.334       4.098       3.825       3.495       3.211       3.020       2.749       2.456    
        2.246       2.023       1.799       1.598       1.361       1.130      0.8675      0.5789      0.2893       0.000    
  36    10.00       9.956       9.906       9.839       9.725       9.588       9.478       9.344       9.145       8.878    
        8.580       8.323       8.165       8.047       7.946       7.818       7.650       7.480       7.281       7.029    
        6.828       6.670       6.523       6.413       6.306       6.111       5.809       5.490       5.160       4.903    
        4.743       4.581       4.368       4.149       3.918       3.620       3.339       3.132       2.895       2.581    
        2.346       2.120       1.892       1.726       1.498       1.242      0.9802      0.6789      0.3453       0.000    
  37    10.00       9.941       9.885       9.812       9.696       9.571       9.446       9.314       9.130       8.839    
        8.535       8.326       8.229       8.111       7.971       7.831       7.624       7.406       7.133       6.870    
        6.740       6.616       6.473       6.351       6.218       5.980       5.710       5.374       5.099       4.923    
        4.770       4.598       4.382       4.194       3.955       3.671       3.451       3.251       2.989       2.676    
        2.395       2.175       1.994       1.809       1.592       1.355       1.104      0.7661      0.4150       0.000    
  38    10.00       9.934       9.861       9.782       9.675       9.551       9.410       9.272       9.074       8.803    
        8.569       8.402       8.276       8.162       7.994       7.763       7.514       7.227       6.929       6.775    
        6.676       6.514       6.364       6.265       6.108       5.876       5.556       5.267       5.120       4.982    
        4.811       4.620       4.417       4.227       3.994       3.736       3.540       3.336       3.024       2.698    
        2.454       2.251       2.067       1.882       1.689       1.461       1.201      0.8765      0.4547       0.000    
  39    10.00       9.916       9.841       9.762       9.656       9.516       9.364       9.217       9.035       8.815    
        8.631       8.504       8.358       8.184       7.912       7.600       7.283       6.974       6.802       6.714    
        6.558       6.381       6.274       6.179       6.027       5.760       5.463       5.291       5.164       5.017    
        4.834       4.655       4.450       4.248       4.051       3.840       3.614       3.377       3.057       2.736    
        2.480       2.276       2.133       1.986       1.777       1.543       1.282      0.9286      0.4547       0.000    
  40    10.00       9.901       9.828       9.748       9.640       9.493       9.335       9.186       9.032       8.847    
        8.693       8.580       8.383       8.086       7.730       7.378       7.061       6.859       6.753       6.630    
        6.454       6.305       6.214       6.088       5.913       5.698       5.513       5.345       5.196       5.057    
        4.887       4.689       4.483       4.294       4.114       3.900       3.657       3.420       3.072       2.722    
        2.491       2.322       2.173       2.047       1.835       1.575       1.335      0.9648      0.4763       0.000    
  41    10.00       9.908       9.822       9.733       9.612       9.478       9.340       9.205       9.056       8.890    
        8.742       8.595       8.313       7.927       7.534       7.218       6.976       6.809       6.696       6.552    
        6.371       6.246       6.136       6.003       5.855       5.707       5.574       5.413       5.235       5.075    
        4.922       4.735       4.527       4.356       4.169       3.960       3.712       3.382       2.997       2.728    
        2.541       2.365       2.228       2.069       1.846       1.588       1.376       1.024      0.5243       0.000    
  42    10.00       9.910       9.814       9.731       9.626       9.501       9.362       9.211       9.076       8.946    
        8.762       8.487       8.130       7.732       7.380       7.140       6.931       6.776       6.641       6.466    
        6.301       6.183       6.069       5.977       5.856       5.750       5.627       5.442       5.251       5.109    
        4.977       4.774       4.552       4.392       4.232       3.998       3.679       3.284       2.943       2.739    
        2.589       2.440       2.271       2.064       1.832       1.625       1.411       1.066      0.5485       0.000    
  43    10.00       9.911       9.822       9.737       9.653       9.541       9.401       9.251       9.102       8.910    
        8.635       8.317       7.953       7.571       7.303       7.103       6.905       6.739       6.575       6.401    
        6.249       6.138       6.057       5.987       5.882       5.769       5.647       5.465       5.296       5.181    
        5.013       4.791       4.583       4.425       4.241       3.955       3.581       3.200       2.963       2.802    
        2.644       2.483       2.276       2.053       1.842       1.641       1.449       1.063      0.4788       0.000    
  44    10.00       9.905       9.824       9.750       9.657       9.570       9.451       9.266       9.061       8.790    
        8.510       8.176       7.779       7.503       7.297       7.075       6.859       6.667       6.488       6.334    
        6.226       6.140       6.066       5.994       5.903       5.787       5.644       5.502       5.371       5.227    
        5.065       4.865       4.630       4.407       4.191       3.899       3.509       3.181       2.991       2.835    
        2.684       2.506       2.299       2.100       1.879       1.656       1.405      0.9101      0.4022       0.000    
  45    10.00       9.905       9.838       9.753       9.665       9.587       9.410       9.197       8.954       8.686    
        8.452       8.051       7.683       7.478       7.265       7.022       6.776       6.579       6.423       6.314    
        6.238       6.163       6.086       5.999       5.902       5.795       5.676       5.556       5.449       5.301    
        5.107       4.893       4.655       4.386       4.141       3.824       3.458       3.200       3.044       2.888    
        2.691       2.486       2.304       2.124       1.931       1.692       1.267      0.7628      0.3863       0.000    
  46    10.00       9.922       9.850       9.759       9.662       9.513       9.326       9.149       8.926       8.665    
        8.326       7.958       7.663       7.406       7.189       6.948       6.702       6.549       6.433       6.333    
        6.263       6.194       6.101       5.998       5.902       5.808       5.711       5.604       5.497       5.360    
        5.180       4.956       4.692       4.388       4.047       3.707       3.441       3.265       3.092       2.912    
        2.686       2.472       2.291       2.147       1.939       1.605       1.136      0.7184      0.3650       0.000    
  47    10.00       9.939       9.872       9.777       9.608       9.429       9.268       9.116       8.916       8.590    
        8.225       7.883       7.599       7.383       7.151       6.884       6.672       6.536       6.444       6.362    
        6.287       6.206       6.114       6.012       5.918       5.837       5.751       5.646       5.522       5.387    
        5.227       5.028       4.687       4.284       3.964       3.714       3.483       3.332       3.173       2.923    
        2.654       2.429       2.261       2.143       1.883       1.485       1.054      0.6912      0.3548       0.000    
  48    10.00       9.946       9.875       9.733       9.562       9.413       9.242       9.088       8.875       8.530    
        8.133       7.823       7.593       7.336       7.065       6.826       6.667       6.535       6.446       6.385    
        6.310       6.212       6.111       6.023       5.947       5.879       5.797       5.680       5.534       5.376    
        5.211       4.982       4.630       4.300       4.020       3.772       3.556       3.385       3.180       2.880    
        2.596       2.415       2.275       2.055       1.707       1.351       1.006      0.6961      0.3745       0.000    
  49    10.00       9.943       9.842       9.714       9.574       9.401       9.229       9.056       8.792       8.427    
        8.085       7.795       7.518       7.274       7.065       6.840       6.635       6.515       6.457       6.398    
        6.327       6.217       6.105       6.032       5.970       5.916       5.824       5.682       5.516       5.365    
        5.192       4.913       4.615       4.394       4.138       3.847       3.585       3.379       3.142       2.823    
        2.593       2.435       2.226       1.894       1.585       1.294      0.9949      0.6960      0.3732       0.000    
  50    10.00       9.935       9.830       9.700       9.573       9.411       9.218       9.003       8.724       8.436    
        8.078       7.716       7.458       7.264       7.088       6.834       6.607       6.517       6.465       6.406    
        6.335       6.221       6.107       6.036       5.983       5.933       5.829       5.666       5.498       5.355    
        5.177       4.890       4.660       4.461       4.193       3.904       3.630       3.347       3.024       2.757    
        2.638       2.459       2.136       1.803       1.574       1.292       1.009      0.6816      0.3039       0.000    

 HEAD WILL BE SAVED ON UNIT   51 AT END OF TIME STEP   6, STRESS PERIOD    2

 DRAWDOWN WILL BE SAVED ON UNIT   52 AT END OF TIME STEP   6, STRESS PERIOD    2
1
  VOLUMETRIC BUDGET FOR ENTIRE MODEL AT END OF TIME STEP  6 IN STRESS PERIOD   2
  ------------------------------------------------------------------------------

     CUMULATIVE VOLUMES      L**3       RATES FOR THIS TIME STEP      L**3/T
     ------------------                 ------------------------

           IN:                                      IN:
           ---                                      ---
             STORAGE =        3000.0029               STORAGE =         499.9968
       CONSTANT HEAD =        4179.6265         CONSTANT HEAD =         597.0922
               WELLS =           0.0000                 WELLS =           0.0000

            TOTAL IN =        7179.6294              TOTAL IN =        1097.0890

          OUT:                                     OUT:
          ----                                     ----
             STORAGE =       9.0838E-03               STORAGE =       3.4559E-04
       CONSTANT HEAD =        4179.6201         CONSTANT HEAD =         597.0886
               WELLS =        3000.0000                 WELLS =         500.0000

           TOTAL OUT =        7179.6294             TOTAL OUT =        1097.0890

            IN - OUT =           0.0000              IN - OUT =           0.0000

 PERCENT DISCREPANCY =           0.00     PERCENT DISCREPANCY =           0.00






          TIME SUMMARY AT END OF TIME STEP   6 IN STRESS PERIOD    2
                    SECONDS     MINUTES      HOURS       DAYS        YEARS
                    -----------------------------------------------------------
   TIME STEP LENGTH  86400.      1440.0      24.000      1.0000     2.73785E-03
 STRESS PERIOD TIME 5.18400E+05  8640.0      144.00      6.0000     1.64271E-02
         TOTAL TIME 6.04800E+05  10080.      168.00      7.0000     1.91650E-02
1
 
 SOLVING FOR HEAD 

 OUTPUT CONTROL FOR STRESS PERIOD    2   TIME STEP   7
    SAVE HEAD FOR ALL LAYERS
    SAVE DRAWDOWN FOR ALL LAYERS
    SAVE BUDGET
    PRINT HEAD FOR ALL LAYERS
    PRINT BUDGET
 UBDSV1 SAVING "         STORAGE" ON UNIT  53 AT TIME STEP  7, STRESS PERIOD   2
 UBDSV2 SAVING "   CONSTANT HEAD" ON UNIT  53 AT TIME STEP  7, STRESS PERIOD   2
 UBDSV1 SAVING "FLOW RIGHT FACE " ON UNIT  53 AT TIME STEP  7, STRESS PERIOD   2
 UBDSV1 SAVING "FLOW FRONT FACE " ON UNIT  53 AT TIME STEP  7, STRESS PERIOD   2
1
              HEAD IN LAYER   1 AT END OF TIME STEP   7 IN STRESS PERIOD    2
  ---------------------------------------------------------------------------

            1           2           3           4           5           6           7           8           9          10
           11          12          13          14          15          16          17          18          19          20
           21          22          23          24          25          26          27          28          29          30
           31          32          33          34          35          36          37          38          39          40
           41          42          43          44          45          46          47          48          49          50
 ........................................................................................................................
   1    10.00       9.960       9.902       9.836       9.772       9.700       9.631       9.563       9.478       9.394    
        9.330       9.266       9.201       9.138       9.035       8.911       8.773       8.665       8.608       8.542    
        8.463       8.399       8.336       8.261       8.161       7.964       7.741       7.584       7.430       7.285    
        7.096       6.795       6.409       5.982       5.540       5.070       4.605       4.218       3.713       3.165    
        2.715       2.285       1.807       1.408       1.161      0.9524      0.7868      0.6669      0.4476       0.000    
   2    10.00       9.959       9.906       9.840       9.775       9.711       9.643       9.554       9.461       9.392    
        9.336       9.282       9.227       9.149       9.031       8.902       8.772       8.665       8.607       8.533    
        8.454       8.406       8.355       8.277       8.151       7.958       7.756       7.594       7.438       7.297    
        7.086       6.770       6.366       5.880       5.408       4.954       4.551       4.178       3.664       3.134    
        2.683       2.198       1.763       1.449       1.217       1.037      0.8317      0.6492      0.3621       0.000    
   3    10.00       9.953       9.901       9.842       9.785       9.720       9.633       9.539       9.473       9.412    
        9.349       9.300       9.251       9.175       9.055       8.896       8.755       8.668       8.600       8.525    
        8.461       8.411       8.358       8.255       8.119       7.948       7.772       7.645       7.464       7.278    
        7.014       6.640       6.182       5.712       5.292       4.867       4.472       4.072       3.540       3.049    
        2.661       2.214       1.814       1.526       1.295       1.109      0.8655      0.5802      0.2630       0.000    
   4    10.00       9.953       9.902       9.845       9.781       9.705       9.616       9.544       9.487       9.424    
        9.369       9.327       9.274       9.188       9.071       8.902       8.755       8.674       8.598       8.531    
        8.462       8.401       8.335       8.228       8.094       7.941       7.782       7.626       7.467       7.256    
        6.925       6.434       5.949       5.592       5.239       4.799       4.324       3.855       3.430       3.057    
        2.693       2.277       1.900       1.639       1.379       1.142      0.8410      0.5220      0.2500       0.000    
   5    10.00       9.950       9.899       9.834       9.769       9.699       9.619       9.557       9.498       9.439    
        9.391       9.351       9.280       9.181       9.052       8.899       8.774       8.685       8.611       8.522    
        8.440       8.374       8.295       8.190       8.070       7.915       7.757       7.613       7.451       7.198    
        6.728       6.184       5.795       5.514       5.164       4.685       4.194       3.767       3.446       3.108    
        2.749       2.365       1.990       1.746       1.467       1.125      0.7657      0.4656      0.2342       0.000    
   6    10.00       9.943       9.882       9.829       9.769       9.693       9.625       9.572       9.510       9.454    
        9.409       9.360       9.272       9.161       9.049       8.920       8.795       8.693       8.596       8.494    
        8.413       8.337       8.267       8.173       8.021       7.870       7.741       7.595       7.371       6.994    
        6.480       5.989       5.665       5.419       5.102       4.627       4.136       3.771       3.499       3.191    
        2.860       2.520       2.135       1.808       1.438       1.061      0.6765      0.4019      0.2213       0.000    
   7    10.00       9.932       9.873       9.823       9.762       9.698       9.638       9.587       9.530       9.476    
        9.420       9.347       9.251       9.146       9.040       8.940       8.810       8.673       8.562       8.462    
        8.378       8.305       8.244       8.129       7.974       7.845       7.715       7.524       7.176       6.698    
        6.206       5.806       5.581       5.359       4.989       4.547       4.212       3.855       3.554       3.350    
        3.034       2.667       2.214       1.748       1.334      0.9219      0.5831      0.4050      0.2085       0.000    
   8    10.00       9.931       9.878       9.822       9.760       9.704       9.651       9.600       9.548       9.495    
        9.423       9.330       9.235       9.136       9.039       8.927       8.767       8.625       8.535       8.439    
        8.345       8.282       8.196       8.076       7.943       7.807       7.594       7.302       6.874       6.456    
        6.079       5.759       5.548       5.292       4.899       4.529       4.227       3.961       3.722       3.485    
        3.175       2.713       2.156       1.660       1.228      0.8635      0.6175      0.3969      0.1902       0.000    
   9    10.00       9.942       9.877       9.816       9.770       9.724       9.671       9.617       9.559       9.503    
        9.420       9.315       9.213       9.114       9.012       8.881       8.729       8.598       8.500       8.404    
        8.321       8.241       8.128       8.016       7.895       7.734       7.437       7.046       6.649       6.340    
        6.026       5.750       5.514       5.191       4.824       4.510       4.277       4.075       3.860       3.598    
        3.225       2.720       2.152       1.658       1.238      0.8830      0.6233      0.4005      0.2048       0.000    
  10    10.00       9.940       9.872       9.821       9.779       9.734       9.686       9.640       9.574       9.492    
        9.393       9.283       9.187       9.095       8.991       8.833       8.673       8.561       8.471       8.380    
        8.302       8.196       8.072       7.949       7.813       7.592       7.225       6.817       6.468       6.219    
        6.009       5.764       5.482       5.151       4.799       4.525       4.340       4.162       3.929       3.628    
        3.201       2.678       2.158       1.736       1.341      0.9723      0.6430      0.4254      0.2286       0.000    
  11    10.00       9.927       9.872       9.831       9.789       9.751       9.707       9.643       9.553       9.463    
        9.364       9.257       9.169       9.061       8.921       8.772       8.641       8.542       8.459       8.368    
        8.257       8.127       7.968       7.829       7.619       7.320       7.003       6.688       6.383       6.184    
        6.016       5.715       5.399       5.122       4.843       4.621       4.422       4.195       3.906       3.543    
        3.143       2.737       2.236       1.819       1.443       1.076      0.7227      0.4178      0.1752       0.000    
  12    10.00       9.930       9.879       9.835       9.800       9.760       9.710       9.622       9.518       9.432    
        9.341       9.231       9.125       8.999       8.878       8.743       8.617       8.531       8.443       8.325    
        8.154       7.968       7.787       7.602       7.331       7.101       6.898       6.596       6.328       6.154    
        5.959       5.690       5.412       5.146       4.932       4.717       4.461       4.183       3.833       3.467    
        3.127       2.759       2.275       1.864       1.509       1.125      0.7607      0.3943      0.1308       0.000    
  13    10.00       9.943       9.895       9.849       9.807       9.760       9.682       9.581       9.485       9.397    
        9.296       9.191       9.083       8.954       8.822       8.696       8.606       8.504       8.394       8.182    
        7.938       7.746       7.549       7.313       7.100       6.972       6.750       6.483       6.315       6.146    
        5.905       5.654       5.428       5.210       5.017       4.815       4.506       4.126       3.786       3.440    
        3.113       2.731       2.212       1.830       1.525       1.116      0.6997      0.3407      0.1043       0.000    
  14    10.00       9.956       9.915       9.866       9.809       9.732       9.631       9.531       9.445       9.351    
        9.248       9.151       9.031       8.899       8.786       8.677       8.550       8.427       8.227       7.927    
        7.697       7.511       7.262       7.070       6.955       6.833       6.618       6.436       6.283       6.108    
        5.885       5.675       5.498       5.290       5.074       4.864       4.516       4.099       3.746       3.389    
        3.053       2.579       2.085       1.784       1.438       1.071      0.7017      0.3159      8.9964E-02   0.000    
  15    10.00       9.965       9.922       9.868       9.800       9.690       9.568       9.481       9.401       9.309    
        9.230       9.132       8.981       8.835       8.734       8.580       8.427       8.300       8.012       7.691    
        7.484       7.247       7.029       6.940       6.862       6.725       6.539       6.365       6.234       6.085    
        5.890       5.721       5.559       5.368       5.145       4.885       4.480       4.021       3.649       3.322    
        2.961       2.483       2.092       1.715       1.304      0.9803      0.6277      0.2900      9.8102E-02   0.000    
  16    10.00       9.971       9.925       9.859       9.760       9.629       9.521       9.452       9.383       9.291    
        9.197       9.059       8.879       8.742       8.605       8.435       8.333       8.098       7.709       7.430    
        7.241       7.032       6.936       6.871       6.758       6.594       6.443       6.334       6.230       6.089    
        5.912       5.748       5.608       5.415       5.144       4.802       4.346       3.949       3.651       3.300    
        2.881       2.410       1.990       1.582       1.228      0.8691      0.5637      0.2932      0.1046       0.000    
  17    10.00       9.967       9.912       9.824       9.712       9.578       9.483       9.424       9.343       9.248    
        9.087       8.900       8.754       8.621       8.453       8.291       8.096       7.739       7.413       7.232    
        7.077       6.947       6.877       6.764       6.601       6.479       6.414       6.345       6.237       6.079    
        5.917       5.764       5.613       5.426       5.057       4.615       4.261       3.994       3.700       3.277    
        2.745       2.285       1.895       1.512       1.102      0.7256      0.4810      0.2665      0.1110       0.000    
  18    10.00       9.954       9.884       9.782       9.636       9.524       9.458       9.372       9.276       9.138    
        8.940       8.789       8.656       8.464       8.255       8.042       7.779       7.471       7.265       7.118    
        6.995       6.880       6.773       6.628       6.504       6.448       6.410       6.352       6.238       6.080    
        5.927       5.767       5.574       5.293       4.921       4.557       4.270       4.048       3.680       3.163    
        2.650       2.168       1.776       1.417       1.024      0.6698      0.4068      0.2229      0.1040       0.000    
  19    10.00       9.938       9.858       9.711       9.567       9.502       9.420       9.310       9.195       9.042    
        8.870       8.724       8.520       8.256       8.043       7.838       7.558       7.301       7.165       7.068    
        6.938       6.799       6.681       6.552       6.474       6.434       6.393       6.325       6.215       6.077    
        5.928       5.747       5.492       5.192       4.875       4.559       4.306       4.022       3.507       3.000    
        2.594       2.102       1.677       1.327      0.9408      0.6039      0.3662      0.2116      0.1059       0.000    
  20    10.00       9.920       9.797       9.645       9.540       9.467       9.377       9.261       9.126       8.986    
        8.810       8.598       8.330       8.093       7.908       7.665       7.408       7.273       7.157       7.026    
        6.890       6.746       6.603       6.501       6.446       6.399       6.339       6.271       6.172       6.047    
        5.902       5.714       5.449       5.161       4.863       4.583       4.310       3.873       3.334       2.903    
        2.457       1.981       1.605       1.255      0.8949      0.5427      0.3180      0.2134      0.1078       0.000    
  21    10.00       9.874       9.748       9.625       9.516       9.434       9.337       9.190       9.055       8.921    
        8.697       8.437       8.191       7.999       7.802       7.570       7.386       7.268       7.138       6.997    
        6.833       6.672       6.545       6.443       6.364       6.298       6.250       6.192       6.095       5.990    
        5.857       5.661       5.413       5.144       4.864       4.585       4.200       3.758       3.286       2.775    
        2.326       1.880       1.555       1.234      0.7771      0.4578      0.3257      0.2375      0.1141       0.000    
  22    10.00       9.856       9.708       9.589       9.497       9.400       9.260       9.116       8.998       8.824    
        8.591       8.324       8.114       7.956       7.742       7.528       7.372       7.252       7.124       6.958    
        6.771       6.609       6.449       6.302       6.201       6.154       6.121       6.058       5.996       5.918    
        5.787       5.604       5.395       5.128       4.848       4.573       4.165       3.713       3.158       2.654    
        2.267       1.862       1.502       1.027      0.6382      0.4583      0.3443      0.2288      9.0789E-02   0.000    
  23    10.00       9.825       9.682       9.583       9.484       9.341       9.185       9.074       8.927       8.748    
        8.514       8.278       8.115       7.916       7.685       7.499       7.368       7.259       7.117       6.919    
        6.719       6.530       6.322       6.070       5.842       5.811       5.877       5.892       5.886       5.834    
        5.728       5.556       5.351       5.122       4.842       4.542       4.153       3.588       3.005       2.591    
        2.220       1.761       1.246      0.8356      0.6213      0.4696      0.3432      0.2175      0.1012       0.000    
  24    10.00       9.802       9.699       9.586       9.447       9.292       9.169       9.049       8.905       8.701    
        8.486       8.301       8.121       7.880       7.635       7.488       7.381       7.269       7.100       6.902    
        6.705       6.489       6.173       5.592       4.699       5.050       5.471       5.695       5.771       5.750    
        5.658       5.503       5.319       5.077       4.805       4.499       4.016       3.421       2.925       2.486    
        2.037       1.555       1.101      0.7952      0.6169      0.4660      0.3347      0.2535      0.1395       0.000    
  25    10.00       9.828       9.719       9.584       9.438       9.299       9.173       9.059       8.883       8.679    
        8.499       8.320       8.099       7.832       7.642       7.510       7.392       7.262       7.106       6.926    
        6.717       6.505       5.937       4.672       1.691       4.189       5.109       5.521       5.677       5.679    
        5.599       5.469       5.271       4.988       4.704       4.345       3.856       3.286       2.835       2.361    
        1.844       1.391       1.022      0.7850      0.6408      0.5005      0.3655      0.2693      0.1757       0.000    
  26    10.00       9.853       9.751       9.606       9.455       9.333       9.202       9.057       8.876       8.716    
        8.558       8.316       8.035       7.809       7.671       7.555       7.416       7.250       7.084       6.930    
        6.773       6.550       6.049       5.167       4.207       4.744       5.277       5.555       5.666       5.641    
        5.536       5.408       5.187       4.912       4.641       4.255       3.623       3.105       2.730       2.155    
        1.598       1.225       1.009      0.8507      0.6976      0.5423      0.4018      0.2942      0.1756       0.000    
  27    10.00       9.886       9.762       9.639       9.504       9.362       9.232       9.090       8.926       8.770    
        8.554       8.265       8.021       7.837       7.717       7.584       7.402       7.220       7.087       6.968    
        6.841       6.621       6.262       5.807       5.326       5.377       5.556       5.674       5.696       5.612    
        5.489       5.353       5.144       4.870       4.516       3.936       3.359       2.963       2.398       1.843    
        1.449       1.207       1.051      0.9166      0.7753      0.5963      0.4291      0.3211      0.2158       0.000    
  28    10.00       9.897       9.792       9.674       9.552       9.417       9.281       9.137       8.980       8.796    
        8.527       8.262       8.048       7.869       7.744       7.605       7.450       7.276       7.108       6.993    
        6.883       6.731       6.506       6.198       5.920       5.789       5.784       5.798       5.733       5.608    
        5.448       5.292       5.058       4.706       4.220       3.644       3.174       2.648       2.102       1.738    
        1.454       1.256       1.101      0.9678      0.8226      0.6513      0.4858      0.3649      0.2224       0.000    
  29    10.00       9.902       9.803       9.714       9.596       9.472       9.341       9.194       9.025       8.777    
        8.509       8.274       8.066       7.916       7.766       7.615       7.472       7.333       7.179       7.038    
        6.923       6.798       6.649       6.468       6.222       6.067       5.979       5.900       5.778       5.567    
        5.370       5.133       4.878       4.433       3.901       3.416       2.949       2.432       2.022       1.762    
        1.531       1.313       1.144       1.014      0.8726      0.6970      0.5266      0.3853      0.2246       0.000    
  30    10.00       9.910       9.828       9.750       9.647       9.532       9.414       9.249       9.035       8.778    
        8.500       8.257       8.081       7.928       7.775       7.630       7.508       7.392       7.254       7.102    
        6.971       6.856       6.727       6.592       6.409       6.225       6.111       5.967       5.769       5.504    
        5.215       4.887       4.582       4.158       3.757       3.317       2.845       2.379       2.083       1.847    
        1.586       1.372       1.209       1.054      0.8947      0.7393      0.5607      0.4013      0.2424       0.000    
  31    10.00       9.925       9.854       9.781       9.705       9.614       9.483       9.285       9.034       8.765    
        8.494       8.265       8.094       7.934       7.797       7.658       7.534       7.442       7.299       7.153    
        7.025       6.899       6.777       6.617       6.454       6.311       6.172       5.996       5.723       5.389    
        4.999       4.650       4.367       4.067       3.684       3.238       2.796       2.419       2.183       1.969    
        1.699       1.452       1.262       1.098      0.9398      0.7752      0.5964      0.4284      0.2357       0.000    
  32    10.00       9.937       9.882       9.818       9.744       9.660       9.528       9.300       9.062       8.814    
        8.523       8.282       8.108       7.954       7.809       7.687       7.577       7.457       7.335       7.195    
        7.046       6.908       6.757       6.583       6.454       6.360       6.208       5.947       5.578       5.185    
        4.829       4.540       4.278       4.008       3.651       3.255       2.888       2.560       2.307       2.067    
        1.814       1.557       1.354       1.163      0.9820      0.8334      0.6504      0.4284      0.2127       0.000    
  33    10.00       9.945       9.900       9.848       9.776       9.680       9.509       9.288       9.087       8.853    
        8.565       8.321       8.136       7.960       7.819       7.718       7.615       7.491       7.354       7.203    
        7.047       6.888       6.704       6.556       6.462       6.365       6.112       5.763       5.414       5.088    
        4.776       4.536       4.289       3.967       3.638       3.286       2.974       2.710       2.446       2.182    
        1.947       1.703       1.481       1.280       1.080      0.9037      0.6982      0.4367      0.2057       0.000    
  34    10.00       9.950       9.920       9.874       9.784       9.649       9.483       9.319       9.111       8.854    
        8.594       8.350       8.145       7.964       7.841       7.760       7.646       7.509       7.344       7.192    
        7.032       6.837       6.663       6.536       6.432       6.256       5.959       5.673       5.349       5.007    
        4.754       4.562       4.332       4.020       3.695       3.379       3.093       2.855       2.586       2.322    
        2.098       1.874       1.639       1.434       1.221       1.014      0.7532      0.4837      0.2550       0.000    
  35    10.00       9.959       9.924       9.865       9.751       9.608       9.486       9.345       9.150       8.868    
        8.587       8.354       8.143       7.989       7.888       7.793       7.660       7.497       7.327       7.151    
        6.959       6.770       6.594       6.470       6.352       6.187       5.907       5.584       5.250       4.940    
        4.762       4.572       4.334       4.098       3.825       3.495       3.211       3.020       2.749       2.456    
        2.246       2.023       1.799       1.598       1.361       1.130      0.8675      0.5789      0.2893       0.000    
  36    10.00       9.956       9.906       9.839       9.725       9.588       9.478       9.344       9.145       8.877    
        8.579       8.323       8.165       8.047       7.945       7.817       7.648       7.478       7.280       7.027    
        6.826       6.668       6.521       6.411       6.303       6.110       5.808       5.489       5.160       4.903    
        4.743       4.581       4.368       4.149       3.918       3.620       3.339       3.132       2.895       2.581    
        2.346       2.120       1.892       1.726       1.498       1.242      0.9802      0.6789      0.3453       0.000    
  37    10.00       9.941       9.885       9.812       9.696       9.571       9.446       9.314       9.130       8.839    
        8.535       8.325       8.228       8.111       7.970       7.831       7.623       7.405       7.132       6.869    
        6.739       6.615       6.472       6.350       6.217       5.979       5.710       5.374       5.099       4.923    
        4.770       4.598       4.382       4.194       3.955       3.671       3.451       3.251       2.989       2.676    
        2.395       2.175       1.994       1.809       1.592       1.355       1.104      0.7661      0.4150       0.000    
  38    10.00       9.934       9.861       9.782       9.675       9.551       9.410       9.272       9.074       8.803    
        8.569       8.402       8.276       8.162       7.994       7.762       7.513       7.227       6.928       6.775    
        6.675       6.514       6.364       6.265       6.107       5.875       5.556       5.267       5.120       4.981    
        4.811       4.620       4.417       4.227       3.994       3.736       3.540       3.336       3.024       2.698    
        2.454       2.251       2.067       1.882       1.689       1.461       1.201      0.8765      0.4547       0.000    
  39    10.00       9.916       9.841       9.762       9.656       9.516       9.364       9.217       9.035       8.815    
        8.631       8.504       8.358       8.184       7.912       7.600       7.283       6.974       6.802       6.714    
        6.558       6.380       6.273       6.179       6.026       5.760       5.463       5.291       5.164       5.017    
        4.834       4.655       4.450       4.248       4.051       3.840       3.614       3.377       3.057       2.736    
        2.480       2.276       2.133       1.986       1.777       1.543       1.282      0.9286      0.4547       0.000    
  40    10.00       9.901       9.828       9.748       9.640       9.493       9.335       9.186       9.032       8.847    
        8.693       8.580       8.383       8.086       7.730       7.378       7.061       6.858       6.753       6.630    
        6.454       6.305       6.214       6.088       5.913       5.698       5.513       5.345       5.196       5.057    
        4.887       4.689       4.483       4.294       4.114       3.900       3.657       3.420       3.072       2.722    
        2.491       2.322       2.173       2.047       1.835       1.575       1.335      0.9648      0.4763       0.000    
  41    10.00       9.908       9.822       9.733       9.612       9.478       9.340       9.205       9.056       8.890    
        8.742       8.595       8.313       7.927       7.534       7.218       6.975       6.809       6.696       6.551    
        6.371       6.246       6.136       6.003       5.854       5.707       5.574       5.413       5.235       5.075    
        4.922       4.735       4.527       4.356       4.169       3.960       3.712       3.382       2.997       2.728    
        2.541       2.365       2.228       2.069       1.846       1.588       1.376       1.024      0.5243       0.000    
  42    10.00       9.910       9.814       9.731       9.626       9.501       9.362       9.211       9.076       8.946    
        8.762       8.487       8.130       7.732       7.380       7.140       6.931       6.776       6.640       6.466    
        6.301       6.183       6.069       5.977       5.856       5.750       5.627       5.442       5.251       5.109    
        4.977       4.774       4.552       4.392       4.232       3.998       3.679       3.284       2.943       2.739    
        2.589       2.440       2.271       2.064       1.832       1.625       1.411       1.066      0.5485       0.000    
  43    10.00       9.911       9.822       9.737       9.653       9.541       9.401       9.251       9.102       8.910    
        8.635       8.317       7.953       7.571       7.303       7.103       6.905       6.739       6.575       6.401    
        6.249       6.138       6.057       5.987       5.882       5.769       5.647       5.465       5.296       5.181    
        5.013       4.791       4.583       4.425       4.241       3.955       3.581       3.200       2.963       2.802    
        2.644       2.483       2.276       2.053       1.842       1.641       1.449       1.063      0.4788       0.000    
  44    10.00       9.905       9.824       9.750       9.657       9.570       9.451       9.266       9.061       8.790    
        8.510       8.176       7.779       7.503       7.297       7.075       6.859       6.667       6.488       6.334    
        6.226       6.140       6.066       5.994       5.903       5.787       5.644       5.502       5.371       5.227    
        5.065       4.865       4.630       4.407       4.191       3.899       3.509       3.181       2.991       2.835    
        2.684       2.506       2.299       2.100       1.879       1.656       1.405      0.9101      0.4022       0.000    
  45    10.00       9.905       9.838       9.753       9.665       9.587       9.410       9.197       8.954       8.686    
        8.452       8.051       7.683       7.478       7.265       7.022       6.776       6.579       6.423       6.314    
        6.238       6.163       6.086       5.999       5.902       5.795       5.676       5.556       5.449       5.301    
        5.107       4.893       4.655       4.386       4.141       3.824       3.458       3.200       3.044       2.888    
        2.691       2.486       2.304       2.124       1.931       1.692       1.267      0.7628      0.3863       0.000    
  46    10.00       9.922       9.850       9.759       9.662       9.513       9.326       9.149       8.926       8.665    
        8.326       7.958       7.663       7.406       7.189       6.948       6.702       6.549       6.433       6.333    
        6.263       6.194       6.101       5.998       5.902       5.808       5.711       5.604       5.497       5.360    
        5.180       4.956       4.692       4.388       4.047       3.707       3.441       3.265       3.092       2.912    
        2.686       2.472       2.291       2.147       1.939       1.605       1.136      0.7184      0.3650       0.000    
  47    10.00       9.939       9.872       9.777       9.608       9.429       9.268       9.116       8.916       8.590    
        8.225       7.883       7.599       7.383       7.151       6.884       6.672       6.536       6.444       6.362    
        6.287       6.206       6.114       6.012       5.918       5.837       5.751       5.646       5.522       5.387    
        5.227       5.028       4.687       4.284       3.964       3.714       3.483       3.332       3.173       2.923    
        2.654       2.429       2.261       2.143       1.883       1.485       1.054      0.6912      0.3548       0.000    
  48    10.00       9.946       9.875       9.733       9.562       9.413       9.242       9.088       8.875       8.530    
        8.133       7.823       7.593       7.336       7.065       6.826       6.667       6.535       6.446       6.385    
        6.310       6.212       6.111       6.023       5.947       5.879       5.797       5.680       5.534       5.376    
        5.211       4.982       4.630       4.300       4.020       3.772       3.556       3.385       3.180       2.880    
        2.596       2.415       2.275       2.055       1.707       1.351       1.006      0.6961      0.3745       0.000    
  49    10.00       9.943       9.842       9.714       9.574       9.401       9.229       9.056       8.792       8.427    
        8.085       7.795       7.518       7.274       7.065       6.840       6.635       6.515       6.457       6.398    
        6.327       6.217       6.105       6.032       5.970       5.916       5.824       5.682       5.516       5.365    
        5.192       4.913       4.615       4.394       4.138       3.847       3.585       3.379       3.142       2.823    
        2.593       2.435       2.226       1.894       1.585       1.294      0.9949      0.6960      0.3732       0.000    
  50    10.00       9.935       9.830       9.700       9.573       9.411       9.218       9.003       8.724       8.436    
        8.078       7.716       7.458       7.264       7.088       6.834       6.607       6.517       6.465       6.406    
        6.335       6.221       6.107       6.036       5.983       5.933       5.829       5.666       5.498       5.355    
        5.177       4.890       4.660       4.461       4.193       3.904       3.630       3.347       3.024       2.757    
        2.638       2.459       2.136       1.803       1.574       1.292       1.009      0.6816      0.3039       0.000    

 HEAD WILL BE SAVED ON UNIT   51 AT END OF TIME STEP   7, STRESS PERIOD    2

 DRAWDOWN WILL BE SAVED ON UNIT   52 AT END OF TIME STEP   7, STRESS PERIOD    2
1
  VOLUMETRIC BUDGET FOR ENTIRE MODEL AT END OF TIME STEP  7 IN STRESS PERIOD   2
  ------------------------------------------------------------------------------

     CUMULATIVE VOLUMES      L**3       RATES FOR THIS TIME STEP      L**3/T
     ------------------                 ------------------------

           IN:                                      IN:
           ---                                      ---
             STORAGE =        3499.9951               STORAGE =         499.9923
       CONSTANT HEAD =        4776.7231         CONSTANT HEAD =         597.0966
               WELLS =           0.0000                 WELLS =           0.0000

            TOTAL IN =        8276.7188              TOTAL IN =        1097.0889

          OUT:                                     OUT:
          ----                                     ----
             STORAGE =       9.2770E-03               STORAGE =       1.9324E-04
       CONSTANT HEAD =        4776.7085         CONSTANT HEAD =         597.0886
               WELLS =        3500.0000                 WELLS =         500.0000

           TOTAL OUT =        8276.7178             TOTAL OUT =        1097.0887

            IN - OUT =       9.7656E-04              IN - OUT =       1.2207E-04

 PERCENT DISCREPANCY =           0.00     PERCENT DISCREPANCY =           0.00






          TIME SUMMARY AT END OF TIME STEP   7 IN STRESS PERIOD    2
                    SECONDS     MINUTES      HOURS       DAYS        YEARS
                    -----------------------------------------------------------
   TIME STEP LENGTH  86400.      1440.0      24.000      1.0000     2.73785E-03
 STRESS PERIOD TIME 6.04800E+05  10080.      168.00      7.0000     1.91650E-02
         TOTAL TIME 6.91200E+05  11520.      192.00      8.0000     2.19028E-02
1
 
 SOLVING FOR HEAD 

 OUTPUT CONTROL FOR STRESS PERIOD    2   TIME STEP   8
    SAVE HEAD FOR ALL LAYERS
    SAVE DRAWDOWN FOR ALL LAYERS
    SAVE BUDGET
    PRINT HEAD FOR ALL LAYERS
    PRINT BUDGET
 UBDSV1 SAVING "         STORAGE" ON UNIT  53 AT TIME STEP  8, STRESS PERIOD   2
 UBDSV2 SAVING "   CONSTANT HEAD" ON UNIT  53 AT TIME STEP  8, STRESS PERIOD   2
 UBDSV1 SAVING "FLOW RIGHT FACE " ON UNIT  53 AT TIME STEP  8, STRESS PERIOD   2
 UBDSV1 SAVING "FLOW FRONT FACE " ON UNIT  53 AT TIME STEP  8, STRESS PERIOD   2
1
              HEAD IN LAYER   1 AT END OF TIME STEP   8 IN STRESS PERIOD    2
  ---------------------------------------------------------------------------

            1           2           3           4           5           6           7           8           9          10
           11          12          13          14          15          16          17          18          19          20
           21          22          23          24          25          26          27          28          29          30
           31          32          33          34          35          36          37          38          39          40
           41          42          43          44          45          46          47          48          49          50
 ........................................................................................................................
   1    10.00       9.960       9.902       9.836       9.772       9.700       9.631       9.563       9.478       9.394    
        9.330       9.266       9.201       9.138       9.035       8.911       8.773       8.665       8.608       8.542    
        8.463       8.399       8.336       8.261       8.161       7.964       7.741       7.584       7.430       7.285    
        7.096       6.795       6.409       5.982       5.540       5.070       4.605       4.218       3.713       3.165    
        2.715       2.285       1.807       1.408       1.161      0.9524      0.7868      0.6669      0.4476       0.000    
   2    10.00       9.959       9.906       9.840       9.775       9.711       9.643       9.554       9.461       9.392    
        9.336       9.282       9.227       9.149       9.031       8.902       8.772       8.665       8.607       8.533    
        8.454       8.406       8.354       8.277       8.151       7.958       7.756       7.594       7.438       7.297    
        7.086       6.770       6.366       5.880       5.408       4.954       4.551       4.178       3.664       3.134    
        2.683       2.198       1.763       1.449       1.217       1.037      0.8317      0.6492      0.3621       0.000    
   3    10.00       9.953       9.901       9.842       9.785       9.720       9.633       9.539       9.473       9.412    
        9.349       9.300       9.251       9.175       9.055       8.896       8.755       8.668       8.600       8.525    
        8.461       8.411       8.358       8.255       8.119       7.948       7.772       7.645       7.464       7.278    
        7.014       6.640       6.182       5.712       5.292       4.867       4.472       4.072       3.540       3.049    
        2.661       2.214       1.814       1.526       1.295       1.109      0.8655      0.5802      0.2630       0.000    
   4    10.00       9.953       9.902       9.845       9.781       9.705       9.616       9.544       9.487       9.424    
        9.369       9.327       9.274       9.188       9.071       8.902       8.755       8.674       8.598       8.531    
        8.462       8.401       8.334       8.228       8.094       7.941       7.782       7.626       7.466       7.256    
        6.925       6.434       5.949       5.592       5.239       4.799       4.324       3.855       3.430       3.057    
        2.693       2.277       1.900       1.639       1.379       1.142      0.8410      0.5220      0.2500       0.000    
   5    10.00       9.950       9.899       9.834       9.769       9.699       9.619       9.557       9.498       9.439    
        9.391       9.350       9.280       9.181       9.052       8.899       8.774       8.685       8.611       8.522    
        8.440       8.374       8.294       8.190       8.070       7.915       7.757       7.613       7.451       7.198    
        6.728       6.184       5.795       5.514       5.164       4.685       4.194       3.767       3.446       3.108    
        2.749       2.365       1.990       1.746       1.467       1.125      0.7657      0.4656      0.2342       0.000    
   6    10.00       9.943       9.882       9.829       9.769       9.693       9.625       9.572       9.510       9.454    
        9.409       9.360       9.272       9.160       9.049       8.920       8.795       8.693       8.595       8.494    
        8.413       8.337       8.267       8.173       8.020       7.869       7.741       7.595       7.371       6.993    
        6.480       5.989       5.665       5.419       5.101       4.627       4.136       3.771       3.499       3.191    
        2.860       2.520       2.135       1.808       1.438       1.061      0.6765      0.4019      0.2213       0.000    
   7    10.00       9.932       9.873       9.823       9.762       9.698       9.638       9.587       9.530       9.476    
        9.420       9.347       9.251       9.146       9.040       8.940       8.810       8.673       8.562       8.462    
        8.377       8.304       8.244       8.129       7.974       7.844       7.715       7.524       7.176       6.698    
        6.206       5.806       5.581       5.358       4.989       4.546       4.212       3.855       3.554       3.350    
        3.034       2.667       2.214       1.748       1.334      0.9219      0.5831      0.4050      0.2085       0.000    
   8    10.00       9.931       9.878       9.822       9.760       9.704       9.651       9.600       9.548       9.495    
        9.423       9.330       9.235       9.136       9.039       8.927       8.767       8.624       8.535       8.439    
        8.345       8.281       8.195       8.076       7.942       7.806       7.594       7.301       6.874       6.455    
        6.078       5.759       5.547       5.291       4.899       4.529       4.227       3.961       3.722       3.484    
        3.175       2.713       2.156       1.660       1.228      0.8635      0.6175      0.3969      0.1902       0.000    
   9    10.00       9.942       9.877       9.816       9.770       9.724       9.671       9.617       9.559       9.503    
        9.420       9.315       9.213       9.114       9.012       8.881       8.728       8.597       8.500       8.404    
        8.321       8.240       8.127       8.015       7.895       7.733       7.436       7.045       6.647       6.339    
        6.025       5.749       5.513       5.191       4.824       4.509       4.277       4.075       3.859       3.598    
        3.225       2.720       2.152       1.658       1.238      0.8830      0.6233      0.4005      0.2048       0.000    
  10    10.00       9.940       9.872       9.821       9.779       9.734       9.686       9.640       9.574       9.492    
        9.393       9.283       9.186       9.095       8.990       8.832       8.673       8.560       8.470       8.380    
        8.301       8.195       8.070       7.948       7.811       7.591       7.223       6.815       6.466       6.217    
        6.007       5.763       5.481       5.150       4.798       4.525       4.339       4.162       3.929       3.628    
        3.201       2.678       2.158       1.736       1.341      0.9723      0.6430      0.4254      0.2286       0.000    
  11    10.00       9.927       9.872       9.831       9.789       9.751       9.707       9.643       9.553       9.463    
        9.364       9.257       9.169       9.061       8.921       8.772       8.641       8.541       8.459       8.368    
        8.256       8.125       7.966       7.827       7.616       7.317       7.000       6.685       6.380       6.181    
        6.014       5.714       5.398       5.121       4.843       4.620       4.422       4.194       3.906       3.543    
        3.143       2.737       2.236       1.819       1.443       1.076      0.7227      0.4178      0.1752       0.000    
  12    10.00       9.930       9.879       9.835       9.800       9.760       9.710       9.622       9.518       9.432    
        9.341       9.231       9.125       8.999       8.878       8.742       8.617       8.530       8.442       8.324    
        8.152       7.965       7.783       7.597       7.325       7.095       6.893       6.590       6.324       6.150    
        5.956       5.687       5.410       5.145       4.930       4.717       4.461       4.183       3.832       3.467    
        3.127       2.759       2.275       1.864       1.509       1.125      0.7607      0.3943      0.1308       0.000    
  13    10.00       9.943       9.895       9.849       9.807       9.760       9.682       9.581       9.484       9.397    
        9.296       9.191       9.082       8.954       8.822       8.696       8.605       8.503       8.393       8.180    
        7.934       7.741       7.542       7.304       7.091       6.962       6.742       6.474       6.308       6.140    
        5.900       5.650       5.424       5.207       5.015       4.814       4.505       4.126       3.786       3.440    
        3.113       2.731       2.212       1.830       1.525       1.116      0.6997      0.3407      0.1043       0.000    
  14    10.00       9.956       9.915       9.866       9.809       9.732       9.631       9.531       9.445       9.351    
        9.248       9.151       9.031       8.899       8.785       8.676       8.549       8.426       8.225       7.922    
        7.690       7.503       7.250       7.056       6.941       6.819       6.605       6.423       6.271       6.098    
        5.878       5.669       5.493       5.287       5.072       4.863       4.516       4.099       3.746       3.389    
        3.053       2.579       2.085       1.784       1.438       1.071      0.7017      0.3159      8.9964E-02   0.000    
  15    10.00       9.965       9.922       9.868       9.800       9.690       9.568       9.481       9.401       9.309    
        9.229       9.132       8.981       8.835       8.733       8.579       8.425       8.297       8.008       7.683    
        7.472       7.232       7.010       6.921       6.844       6.707       6.521       6.348       6.219       6.072    
        5.880       5.713       5.553       5.363       5.142       4.884       4.479       4.020       3.649       3.322    
        2.961       2.483       2.092       1.715       1.304      0.9803      0.6277      0.2900      9.8102E-02   0.000    
  16    10.00       9.971       9.925       9.859       9.760       9.629       9.521       9.452       9.383       9.291    
        9.197       9.058       8.878       8.741       8.603       8.433       8.331       8.094       7.699       7.416    
        7.223       7.010       6.913       6.849       6.735       6.570       6.419       6.311       6.212       6.073    
        5.900       5.739       5.601       5.410       5.141       4.800       4.345       3.948       3.650       3.300    
        2.881       2.410       1.990       1.582       1.228      0.8691      0.5637      0.2932      0.1046       0.000    
  17    10.00       9.967       9.912       9.824       9.712       9.578       9.483       9.424       9.343       9.248    
        9.087       8.900       8.754       8.620       8.451       8.288       8.090       7.729       7.396       7.210    
        7.052       6.921       6.850       6.736       6.570       6.448       6.385       6.319       6.215       6.061    
        5.903       5.753       5.605       5.420       5.054       4.613       4.260       3.993       3.700       3.277    
        2.745       2.285       1.895       1.512       1.102      0.7256      0.4810      0.2665      0.1110       0.000    
  18    10.00       9.954       9.884       9.782       9.636       9.524       9.458       9.372       9.275       9.138    
        8.940       8.789       8.655       8.462       8.251       8.035       7.768       7.452       7.241       7.091    
        6.965       6.849       6.740       6.593       6.468       6.414       6.377       6.322       6.212       6.060    
        5.911       5.755       5.565       5.287       4.918       4.555       4.268       4.047       3.679       3.163    
        2.650       2.168       1.776       1.417       1.024      0.6698      0.4068      0.2229      0.1040       0.000    
  19    10.00       9.938       9.858       9.711       9.567       9.502       9.420       9.310       9.195       9.042    
        8.870       8.723       8.518       8.252       8.036       7.828       7.541       7.277       7.137       7.037    
        6.904       6.762       6.642       6.511       6.434       6.396       6.356       6.292       6.185       6.053    
        5.909       5.733       5.483       5.187       4.872       4.557       4.305       4.021       3.506       2.999    
        2.594       2.102       1.677       1.327      0.9408      0.6039      0.3662      0.2116      0.1059       0.000    
  20    10.00       9.920       9.797       9.645       9.540       9.467       9.377       9.261       9.126       8.986    
        8.809       8.597       8.327       8.087       7.899       7.650       7.386       7.246       7.127       6.992    
        6.852       6.705       6.560       6.458       6.403       6.357       6.298       6.233       6.138       6.019    
        5.879       5.698       5.438       5.155       4.860       4.580       4.309       3.873       3.333       2.903    
        2.457       1.981       1.605       1.255      0.8949      0.5427      0.3180      0.2134      0.1078       0.000    
  21    10.00       9.874       9.748       9.625       9.516       9.434       9.337       9.190       9.055       8.921    
        8.696       8.435       8.186       7.991       7.791       7.553       7.362       7.240       7.106       6.960    
        6.791       6.626       6.497       6.394       6.315       6.249       6.203       6.147       6.054       5.956    
        5.831       5.642       5.401       5.137       4.859       4.583       4.199       3.758       3.286       2.774    
        2.326       1.880       1.555       1.234      0.7771      0.4578      0.3257      0.2375      0.1141       0.000    
  22    10.00       9.856       9.708       9.589       9.497       9.400       9.260       9.116       8.997       8.824    
        8.590       8.321       8.109       7.948       7.729       7.509       7.347       7.223       7.090       6.918    
        6.724       6.558       6.395       6.246       6.145       6.098       6.066       6.006       5.949       5.878    
        5.756       5.583       5.380       5.120       4.844       4.570       4.163       3.712       3.158       2.654    
        2.266       1.862       1.502       1.026      0.6382      0.4583      0.3443      0.2288      9.0789E-02   0.000    
  23    10.00       9.825       9.682       9.583       9.484       9.341       9.185       9.073       8.926       8.748    
        8.513       8.274       8.110       7.906       7.670       7.478       7.342       7.228       7.081       6.876    
        6.669       6.475       6.263       6.006       5.775       5.742       5.811       5.831       5.834       5.790    
        5.694       5.533       5.336       5.112       4.837       4.539       4.152       3.588       3.005       2.591    
        2.220       1.761       1.246      0.8356      0.6213      0.4696      0.3432      0.2175      0.1012       0.000    
  24    10.00       9.802       9.699       9.586       9.447       9.292       9.169       9.049       8.905       8.700    
        8.484       8.298       8.115       7.870       7.618       7.466       7.355       7.239       7.063       6.856    
        6.653       6.431       6.108       5.518       4.614       4.963       5.389       5.625       5.712       5.702    
        5.622       5.478       5.303       5.067       4.799       4.496       4.015       3.421       2.925       2.486    
        2.037       1.555       1.101      0.7952      0.6169      0.4660      0.3347      0.2535      0.1395       0.000    
  25    10.00       9.828       9.719       9.584       9.438       9.299       9.173       9.059       8.882       8.678    
        8.496       8.316       8.092       7.821       7.626       7.489       7.367       7.231       7.068       6.880    
        6.663       6.446       5.865       4.584       1.587       4.088       5.017       5.441       5.613       5.631    
        5.563       5.443       5.255       4.979       4.699       4.343       3.855       3.286       2.835       2.361    
        1.844       1.391       1.022      0.7850      0.6408      0.5005      0.3655      0.2693      0.1757       0.000    
  26    10.00       9.853       9.751       9.606       9.455       9.333       9.202       9.056       8.875       8.715    
        8.556       8.312       8.028       7.797       7.656       7.535       7.392       7.218       7.045       6.885    
        6.721       6.490       5.975       5.076       4.105       4.641       5.181       5.472       5.601       5.594    
        5.503       5.384       5.173       4.904       4.637       4.252       3.622       3.105       2.730       2.155    
        1.598       1.225       1.009      0.8507      0.6976      0.5423      0.4018      0.2942      0.1756       0.000    
  27    10.00       9.886       9.762       9.638       9.504       9.362       9.231       9.090       8.925       8.769    
        8.552       8.261       8.014       7.827       7.704       7.567       7.378       7.187       7.049       6.924    
        6.792       6.564       6.192       5.724       5.230       5.281       5.466       5.596       5.636       5.570    
        5.460       5.332       5.131       4.863       4.513       3.935       3.359       2.963       2.398       1.843    
        1.449       1.207       1.051      0.9166      0.7753      0.5963      0.4291      0.3211      0.2158       0.000    
  28    10.00       9.897       9.792       9.674       9.552       9.417       9.281       9.137       8.979       8.796    
        8.525       8.259       8.042       7.861       7.732       7.589       7.429       7.247       7.072       6.952    
        6.837       6.679       6.444       6.124       5.837       5.704       5.704       5.731       5.681       5.571    
        5.423       5.274       5.048       4.701       4.218       3.643       3.174       2.648       2.101       1.738    
        1.454       1.256       1.101      0.9678      0.8226      0.6513      0.4858      0.3649      0.2224       0.000    
  29    10.00       9.902       9.803       9.714       9.596       9.472       9.340       9.194       9.025       8.776    
        8.508       8.271       8.061       7.909       7.757       7.601       7.454       7.309       7.148       7.000    
        6.881       6.751       6.595       6.407       6.154       5.998       5.916       5.845       5.736       5.539    
        5.351       5.121       4.871       4.431       3.900       3.415       2.949       2.432       2.022       1.762    
        1.531       1.313       1.144       1.014      0.8726      0.6970      0.5266      0.3853      0.2246       0.000    
  30    10.00       9.910       9.828       9.750       9.647       9.532       9.414       9.249       9.035       8.777    
        8.499       8.254       8.077       7.922       7.767       7.618       7.493       7.373       7.229       7.071    
        6.934       6.815       6.682       6.543       6.360       6.177       6.068       5.927       5.741       5.486    
        5.203       4.880       4.578       4.157       3.757       3.316       2.845       2.379       2.083       1.847    
        1.586       1.372       1.209       1.054      0.8947      0.7393      0.5607      0.4013      0.2424       0.000    
  31    10.00       9.925       9.854       9.781       9.705       9.614       9.483       9.285       9.033       8.764    
        8.493       8.263       8.091       7.929       7.790       7.649       7.521       7.426       7.280       7.129    
        6.997       6.868       6.744       6.585       6.425       6.282       6.144       5.971       5.705       5.378    
        4.994       4.647       4.366       4.066       3.684       3.238       2.796       2.419       2.183       1.969    
        1.699       1.452       1.262       1.098      0.9398      0.7752      0.5964      0.4284      0.2357       0.000    
  32    10.00       9.937       9.882       9.818       9.744       9.660       9.528       9.300       9.062       8.814    
        8.522       8.280       8.105       7.950       7.804       7.680       7.568       7.445       7.320       7.177    
        7.025       6.885       6.735       6.563       6.435       6.340       6.188       5.932       5.570       5.180    
        4.827       4.538       4.277       4.008       3.651       3.255       2.887       2.560       2.307       2.067    
        1.814       1.557       1.354       1.163      0.9820      0.8334      0.6504      0.4284      0.2127       0.000    
  33    10.00       9.945       9.900       9.848       9.776       9.680       9.509       9.287       9.087       8.853    
        8.564       8.319       8.134       7.958       7.815       7.712       7.608       7.482       7.344       7.190    
        7.033       6.872       6.689       6.542       6.447       6.350       6.101       5.756       5.410       5.086    
        4.775       4.535       4.288       3.966       3.638       3.286       2.974       2.710       2.446       2.182    
        1.947       1.703       1.481       1.280       1.080      0.9037      0.6982      0.4367      0.2057       0.000    
  34    10.00       9.950       9.920       9.874       9.784       9.649       9.483       9.319       9.111       8.854    
        8.593       8.349       8.144       7.962       7.838       7.756       7.641       7.503       7.337       7.184    
        7.023       6.827       6.654       6.526       6.422       6.248       5.954       5.670       5.347       5.005    
        4.754       4.562       4.332       4.020       3.695       3.379       3.093       2.855       2.586       2.322    
        2.098       1.874       1.639       1.434       1.221       1.014      0.7532      0.4837      0.2550       0.000    
  35    10.00       9.959       9.924       9.865       9.751       9.608       9.486       9.345       9.150       8.868    
        8.587       8.354       8.142       7.988       7.886       7.790       7.657       7.494       7.322       7.146    
        6.955       6.765       6.589       6.465       6.346       6.183       5.904       5.583       5.249       4.940    
        4.762       4.572       4.334       4.098       3.825       3.495       3.211       3.020       2.749       2.456    
        2.246       2.023       1.799       1.598       1.361       1.130      0.8675      0.5789      0.2893       0.000    
  36    10.00       9.956       9.906       9.839       9.725       9.588       9.478       9.344       9.145       8.877    
        8.579       8.323       8.164       8.045       7.944       7.815       7.646       7.476       7.277       7.024    
        6.824       6.665       6.518       6.408       6.300       6.108       5.807       5.489       5.159       4.903    
        4.742       4.581       4.368       4.149       3.918       3.620       3.339       3.132       2.895       2.581    
        2.346       2.120       1.892       1.726       1.498       1.242      0.9802      0.6789      0.3453       0.000    
  37    10.00       9.941       9.885       9.812       9.696       9.571       9.446       9.314       9.130       8.839    
        8.534       8.325       8.228       8.110       7.969       7.829       7.622       7.404       7.131       6.868    
        6.738       6.613       6.470       6.348       6.215       5.978       5.709       5.374       5.099       4.922    
        4.769       4.598       4.382       4.194       3.955       3.671       3.451       3.251       2.989       2.676    
        2.395       2.175       1.994       1.809       1.592       1.355       1.104      0.7661      0.4150       0.000    
  38    10.00       9.934       9.861       9.782       9.675       9.551       9.410       9.272       9.074       8.803    
        8.569       8.401       8.276       8.161       7.993       7.761       7.513       7.226       6.928       6.774    
        6.674       6.513       6.363       6.264       6.106       5.875       5.556       5.267       5.120       4.981    
        4.811       4.620       4.417       4.227       3.994       3.736       3.540       3.336       3.024       2.698    
        2.454       2.251       2.067       1.882       1.689       1.461       1.201      0.8765      0.4547       0.000    
  39    10.00       9.916       9.841       9.762       9.656       9.516       9.364       9.217       9.035       8.815    
        8.630       8.503       8.357       8.184       7.911       7.599       7.283       6.974       6.802       6.714    
        6.558       6.380       6.273       6.178       6.026       5.760       5.463       5.291       5.164       5.017    
        4.834       4.655       4.450       4.248       4.051       3.840       3.614       3.377       3.057       2.736    
        2.480       2.276       2.133       1.986       1.777       1.543       1.282      0.9286      0.4547       0.000    
  40    10.00       9.901       9.828       9.748       9.640       9.493       9.335       9.186       9.031       8.847    
        8.693       8.579       8.383       8.086       7.729       7.378       7.061       6.858       6.753       6.630    
        6.454       6.305       6.214       6.088       5.913       5.698       5.512       5.345       5.196       5.057    
        4.887       4.689       4.483       4.294       4.114       3.900       3.657       3.420       3.072       2.722    
        2.491       2.322       2.173       2.047       1.835       1.575       1.335      0.9648      0.4763       0.000    
  41    10.00       9.908       9.822       9.733       9.612       9.478       9.340       9.205       9.056       8.890    
        8.742       8.595       8.313       7.927       7.534       7.218       6.975       6.809       6.696       6.551    
        6.371       6.246       6.136       6.003       5.854       5.707       5.574       5.413       5.235       5.075    
        4.922       4.735       4.527       4.356       4.169       3.960       3.712       3.382       2.997       2.728    
        2.541       2.365       2.228       2.069       1.846       1.588       1.376       1.024      0.5243       0.000    
  42    10.00       9.910       9.814       9.731       9.626       9.501       9.362       9.211       9.076       8.946    
        8.762       8.487       8.130       7.732       7.380       7.140       6.931       6.775       6.640       6.466    
        6.301       6.183       6.069       5.977       5.856       5.750       5.627       5.441       5.251       5.109    
        4.977       4.774       4.552       4.392       4.232       3.998       3.679       3.284       2.943       2.739    
        2.589       2.440       2.271       2.064       1.832       1.625       1.411       1.066      0.5485       0.000    
  43    10.00       9.911       9.822       9.737       9.653       9.541       9.401       9.251       9.102       8.910    
        8.635       8.317       7.953       7.571       7.303       7.103       6.905       6.739       6.575       6.401    
        6.249       6.138       6.057       5.987       5.882       5.769       5.647       5.465       5.296       5.181    
        5.013       4.791       4.583       4.425       4.241       3.955       3.581       3.200       2.963       2.802    
        2.644       2.483       2.276       2.053       1.842       1.641       1.449       1.063      0.4788       0.000    
  44    10.00       9.905       9.824       9.750       9.657       9.570       9.451       9.266       9.061       8.790    
        8.510       8.176       7.779       7.503       7.297       7.075       6.859       6.667       6.488       6.334    
        6.226       6.140       6.066       5.994       5.903       5.787       5.644       5.502       5.371       5.227    
        5.065       4.865       4.630       4.407       4.191       3.899       3.509       3.181       2.991       2.835    
        2.684       2.506       2.299       2.100       1.879       1.656       1.405      0.9101      0.4022       0.000    
  45    10.00       9.905       9.838       9.753       9.665       9.587       9.410       9.197       8.954       8.686    
        8.452       8.051       7.683       7.478       7.265       7.022       6.776       6.579       6.423       6.314    
        6.238       6.163       6.086       5.999       5.902       5.795       5.676       5.556       5.449       5.301    
        5.107       4.893       4.655       4.386       4.141       3.824       3.458       3.200       3.044       2.888    
        2.691       2.486       2.304       2.124       1.931       1.692       1.267      0.7628      0.3863       0.000    
  46    10.00       9.922       9.850       9.759       9.662       9.513       9.326       9.149       8.926       8.665    
        8.326       7.958       7.663       7.406       7.189       6.948       6.702       6.549       6.433       6.333    
        6.263       6.194       6.101       5.998       5.902       5.808       5.711       5.604       5.497       5.360    
        5.180       4.956       4.692       4.388       4.047       3.707       3.441       3.265       3.092       2.912    
        2.686       2.472       2.291       2.147       1.939       1.605       1.136      0.7184      0.3650       0.000    
  47    10.00       9.939       9.872       9.777       9.608       9.429       9.268       9.116       8.916       8.590    
        8.225       7.883       7.599       7.383       7.151       6.884       6.672       6.536       6.444       6.362    
        6.287       6.206       6.114       6.012       5.918       5.837       5.751       5.646       5.522       5.387    
        5.227       5.028       4.687       4.284       3.964       3.714       3.483       3.332       3.173       2.923    
        2.654       2.429       2.261       2.143       1.883       1.485       1.054      0.6912      0.3548       0.000    
  48    10.00       9.946       9.875       9.733       9.562       9.413       9.242       9.088       8.875       8.530    
        8.133       7.823       7.593       7.336       7.065       6.826       6.667       6.535       6.446       6.385    
        6.310       6.212       6.111       6.023       5.947       5.879       5.797       5.680       5.534       5.376    
        5.211       4.982       4.630       4.300       4.020       3.772       3.556       3.385       3.180       2.880    
        2.596       2.415       2.275       2.055       1.707       1.351       1.006      0.6961      0.3745       0.000    
  49    10.00       9.943       9.842       9.714       9.574       9.401       9.229       9.056       8.792       8.427    
        8.085       7.795       7.518       7.274       7.065       6.840       6.635       6.515       6.457       6.398    
        6.327       6.217       6.105       6.032       5.970       5.916       5.824       5.682       5.516       5.365    
        5.192       4.913       4.615       4.394       4.138       3.847       3.585       3.379       3.142       2.823    
        2.593       2.435       2.226       1.894       1.585       1.294      0.9949      0.6960      0.3732       0.000    
  50    10.00       9.935       9.830       9.700       9.573       9.411       9.218       9.003       8.724       8.436    
        8.078       7.716       7.458       7.264       7.088       6.834       6.607       6.517       6.465       6.406    
        6.335       6.221       6.107       6.036       5.983       5.933       5.829       5.666       5.498       5.355    
        5.177       4.890       4.660       4.461       4.193       3.904       3.630       3.347       3.024       2.757    
        2.638       2.459       2.136       1.803       1.574       1.292       1.009      0.6816      0.3039       0.000    

 HEAD WILL BE SAVED ON UNIT   51 AT END OF TIME STEP   8, STRESS PERIOD    2

 DRAWDOWN WILL BE SAVED ON UNIT   52 AT END OF TIME STEP   8, STRESS PERIOD    2
1
  VOLUMETRIC BUDGET FOR ENTIRE MODEL AT END OF TIME STEP  8 IN STRESS PERIOD   2
  ------------------------------------------------------------------------------

     CUMULATIVE VOLUMES      L**3       RATES FOR THIS TIME STEP      L**3/T
     ------------------                 ------------------------

           IN:                                      IN:
           ---                                      ---
             STORAGE =        3999.9783               STORAGE =         499.9831
       CONSTANT HEAD =        5373.8281         CONSTANT HEAD =         597.1050
               WELLS =           0.0000                 WELLS =           0.0000

            TOTAL IN =        9373.8066              TOTAL IN =        1097.0881

          OUT:                                     OUT:
          ----                                     ----
             STORAGE =       9.3534E-03               STORAGE =       7.6428E-05
       CONSTANT HEAD =        5373.7969         CONSTANT HEAD =         597.0885
               WELLS =        4000.0000                 WELLS =         500.0000

           TOTAL OUT =        9373.8066             TOTAL OUT =        1097.0886

            IN - OUT =           0.0000              IN - OUT =      -4.8828E-04

 PERCENT DISCREPANCY =           0.00     PERCENT DISCREPANCY =           0.00






          TIME SUMMARY AT END OF TIME STEP   8 IN STRESS PERIOD    2
                    SECONDS     MINUTES      HOURS       DAYS        YEARS
                    -----------------------------------------------------------
   TIME STEP LENGTH  86400.      1440.0      24.000      1.0000     2.73785E-03
 STRESS PERIOD TIME 6.91200E+05  11520.      192.00      8.0000     2.19028E-02
         TOTAL TIME 7.77600E+05  12960.      216.00      9.0000     2.46407E-02
1
 
 SOLVING FOR HEAD 

 OUTPUT CONTROL FOR STRESS PERIOD    2   TIME STEP   9
    SAVE HEAD FOR ALL LAYERS
    SAVE DRAWDOWN FOR ALL LAYERS
    SAVE BUDGET
    PRINT HEAD FOR ALL LAYERS
    PRINT BUDGET
 UBDSV1 SAVING "         STORAGE" ON UNIT  53 AT TIME STEP  9, STRESS PERIOD   2
 UBDSV2 SAVING "   CONSTANT HEAD" ON UNIT  53 AT TIME STEP  9, STRESS PERIOD   2
 UBDSV1 SAVING "FLOW RIGHT FACE " ON UNIT  53 AT TIME STEP  9, STRESS PERIOD   2
 UBDSV1 SAVING "FLOW FRONT FACE " ON UNIT  53 AT TIME STEP  9, STRESS PERIOD   2
1
              HEAD IN LAYER   1 AT END OF TIME STEP   9 IN STRESS PERIOD    2
  ---------------------------------------------------------------------------

            1           2           3           4           5           6           7           8           9          10
           11          12          13          14          15          16          17          18          19          20
           21          22          23          24          25          26          27          28          29          30
           31          32          33          34          35          36          37          38          39          40
           41          42          43          44          45          46          47          48          49          50
 ........................................................................................................................
   1    10.00       9.960       9.902       9.836       9.772       9.700       9.631       9.563       9.478       9.394    
        9.330       9.266       9.201       9.138       9.035       8.911       8.773       8.664       8.608       8.542    
        8.463       8.399       8.335       8.261       8.161       7.964       7.740       7.584       7.430       7.285    
        7.096       6.795       6.409       5.982       5.540       5.070       4.605       4.218       3.713       3.165    
        2.715       2.285       1.807       1.408       1.161      0.9524      0.7868      0.6669      0.4476       0.000    
   2    10.00       9.959       9.906       9.840       9.775       9.711       9.643       9.554       9.461       9.392    
        9.336       9.282       9.227       9.149       9.031       8.902       8.772       8.665       8.607       8.533    
        8.454       8.406       8.354       8.277       8.151       7.958       7.756       7.594       7.438       7.296    
        7.086       6.770       6.366       5.880       5.408       4.954       4.551       4.178       3.664       3.134    
        2.683       2.198       1.763       1.449       1.217       1.037      0.8317      0.6492      0.3621       0.000    
   3    10.00       9.953       9.901       9.842       9.785       9.720       9.633       9.539       9.473       9.412    
        9.349       9.300       9.251       9.175       9.055       8.896       8.755       8.668       8.600       8.525    
        8.460       8.411       8.358       8.255       8.119       7.948       7.772       7.645       7.464       7.278    
        7.014       6.640       6.182       5.712       5.292       4.867       4.472       4.072       3.540       3.049    
        2.661       2.214       1.814       1.526       1.295       1.109      0.8654      0.5802      0.2630       0.000    
   4    10.00       9.953       9.902       9.845       9.781       9.705       9.616       9.544       9.487       9.424    
        9.369       9.327       9.274       9.188       9.071       8.902       8.755       8.674       8.598       8.531    
        8.462       8.400       8.334       8.228       8.093       7.941       7.782       7.626       7.466       7.256    
        6.925       6.434       5.949       5.592       5.239       4.799       4.324       3.855       3.430       3.057    
        2.693       2.277       1.900       1.639       1.379       1.142      0.8410      0.5220      0.2500       0.000    
   5    10.00       9.950       9.899       9.834       9.769       9.699       9.619       9.557       9.498       9.439    
        9.391       9.350       9.280       9.180       9.052       8.899       8.774       8.685       8.610       8.522    
        8.440       8.374       8.294       8.189       8.069       7.915       7.757       7.613       7.451       7.198    
        6.728       6.184       5.795       5.514       5.163       4.685       4.194       3.767       3.446       3.108    
        2.749       2.365       1.990       1.746       1.467       1.125      0.7657      0.4656      0.2342       0.000    
   6    10.00       9.943       9.882       9.829       9.769       9.693       9.625       9.572       9.510       9.454    
        9.409       9.360       9.272       9.160       9.049       8.920       8.795       8.693       8.595       8.494    
        8.413       8.336       8.267       8.172       8.020       7.869       7.741       7.594       7.371       6.993    
        6.480       5.989       5.665       5.419       5.101       4.627       4.136       3.771       3.499       3.191    
        2.860       2.520       2.135       1.808       1.438       1.061      0.6765      0.4019      0.2213       0.000    
   7    10.00       9.932       9.873       9.823       9.762       9.698       9.638       9.587       9.530       9.476    
        9.420       9.346       9.251       9.146       9.040       8.940       8.810       8.673       8.562       8.462    
        8.377       8.304       8.243       8.128       7.974       7.844       7.714       7.523       7.175       6.698    
        6.205       5.805       5.580       5.358       4.989       4.546       4.212       3.854       3.554       3.350    
        3.033       2.667       2.214       1.748       1.334      0.9219      0.5831      0.4050      0.2085       0.000    
   8    10.00       9.931       9.878       9.822       9.760       9.704       9.651       9.600       9.548       9.495    
        9.423       9.330       9.235       9.136       9.039       8.927       8.767       8.624       8.534       8.439    
        8.344       8.281       8.195       8.075       7.941       7.805       7.593       7.301       6.873       6.454    
        6.078       5.758       5.547       5.291       4.899       4.529       4.226       3.961       3.722       3.484    
        3.175       2.713       2.156       1.660       1.228      0.8635      0.6175      0.3969      0.1902       0.000    
   9    10.00       9.942       9.877       9.816       9.770       9.724       9.671       9.617       9.559       9.503    
        9.420       9.315       9.213       9.114       9.011       8.881       8.728       8.597       8.500       8.403    
        8.320       8.239       8.126       8.014       7.893       7.732       7.435       7.044       6.646       6.338    
        6.023       5.748       5.513       5.190       4.823       4.509       4.276       4.074       3.859       3.598    
        3.225       2.720       2.152       1.658       1.238      0.8830      0.6233      0.4005      0.2048       0.000    
  10    10.00       9.940       9.872       9.821       9.779       9.734       9.686       9.640       9.574       9.492    
        9.393       9.283       9.186       9.095       8.990       8.832       8.672       8.560       8.469       8.379    
        8.300       8.194       8.069       7.946       7.810       7.589       7.221       6.813       6.464       6.215    
        6.005       5.761       5.480       5.149       4.798       4.524       4.339       4.162       3.928       3.628    
        3.201       2.678       2.158       1.736       1.341      0.9723      0.6430      0.4254      0.2286       0.000    
  11    10.00       9.927       9.872       9.831       9.789       9.751       9.707       9.643       9.553       9.463    
        9.363       9.257       9.168       9.060       8.921       8.771       8.640       8.540       8.458       8.367    
        8.255       8.124       7.964       7.824       7.613       7.313       6.996       6.681       6.376       6.178    
        6.011       5.711       5.396       5.119       4.841       4.619       4.421       4.194       3.906       3.543    
        3.143       2.737       2.236       1.819       1.443       1.076      0.7227      0.4178      0.1752       0.000    
  12    10.00       9.930       9.879       9.835       9.800       9.760       9.710       9.622       9.518       9.432    
        9.341       9.231       9.125       8.999       8.877       8.742       8.616       8.529       8.441       8.322    
        8.150       7.962       7.779       7.592       7.318       7.088       6.886       6.584       6.318       6.146    
        5.952       5.684       5.407       5.143       4.929       4.715       4.460       4.183       3.832       3.467    
        3.127       2.759       2.275       1.864       1.509       1.125      0.7607      0.3943      0.1308       0.000    
  13    10.00       9.943       9.895       9.849       9.807       9.760       9.682       9.581       9.484       9.397    
        9.296       9.191       9.082       8.954       8.821       8.695       8.605       8.502       8.391       8.178    
        7.930       7.735       7.535       7.295       7.080       6.952       6.732       6.464       6.299       6.133    
        5.894       5.645       5.420       5.205       5.013       4.812       4.505       4.125       3.786       3.440    
        3.112       2.731       2.212       1.830       1.525       1.116      0.6997      0.3407      0.1043       0.000    
  14    10.00       9.956       9.915       9.866       9.809       9.732       9.631       9.531       9.445       9.351    
        9.248       9.151       9.030       8.899       8.785       8.675       8.548       8.424       8.222       7.916    
        7.682       7.493       7.236       7.041       6.926       6.805       6.590       6.410       6.258       6.087    
        5.869       5.662       5.488       5.283       5.069       4.861       4.514       4.098       3.746       3.389    
        3.053       2.579       2.085       1.784       1.438       1.071      0.7017      0.3159      8.9964E-02   0.000    
  15    10.00       9.965       9.922       9.868       9.800       9.690       9.568       9.481       9.401       9.309    
        9.229       9.131       8.981       8.834       8.732       8.577       8.423       8.294       8.002       7.673    
        7.460       7.216       6.991       6.902       6.825       6.687       6.502       6.330       6.202       6.057    
        5.869       5.704       5.546       5.358       5.138       4.881       4.478       4.020       3.648       3.321    
        2.960       2.483       2.092       1.715       1.304      0.9803      0.6277      0.2900      9.8102E-02   0.000    
  16    10.00       9.971       9.925       9.859       9.760       9.629       9.521       9.452       9.383       9.291    
        9.197       9.058       8.878       8.740       8.602       8.431       8.327       8.088       7.688       7.400    
        7.203       6.987       6.890       6.826       6.711       6.545       6.394       6.288       6.192       6.056    
        5.886       5.728       5.593       5.404       5.137       4.798       4.344       3.948       3.650       3.300    
        2.881       2.410       1.990       1.582       1.228      0.8691      0.5637      0.2932      0.1046       0.000    
  17    10.00       9.967       9.912       9.824       9.712       9.578       9.483       9.424       9.343       9.248    
        9.086       8.899       8.753       8.618       8.448       8.284       8.084       7.717       7.377       7.188    
        7.026       6.893       6.822       6.707       6.540       6.416       6.355       6.292       6.192       6.043    
        5.888       5.741       5.595       5.413       5.050       4.611       4.259       3.992       3.699       3.276    
        2.745       2.285       1.895       1.512       1.102      0.7256      0.4810      0.2665      0.1110       0.000    
  18    10.00       9.954       9.884       9.782       9.636       9.524       9.458       9.372       9.275       9.137    
        8.939       8.788       8.654       8.459       8.246       8.028       7.755       7.433       7.216       7.063    
        6.935       6.817       6.707       6.558       6.433       6.380       6.344       6.291       6.185       6.038    
        5.894       5.742       5.556       5.281       4.914       4.553       4.267       4.046       3.679       3.162    
        2.650       2.168       1.776       1.417       1.024      0.6698      0.4068      0.2229      0.1040       0.000    
  19    10.00       9.938       9.858       9.711       9.567       9.502       9.420       9.309       9.195       9.042    
        8.869       8.722       8.516       8.247       8.029       7.816       7.522       7.251       7.108       7.005    
        6.870       6.726       6.604       6.473       6.396       6.359       6.321       6.258       6.155       6.028    
        5.889       5.718       5.472       5.180       4.868       4.555       4.303       4.020       3.506       2.999    
        2.594       2.102       1.677       1.327      0.9408      0.6039      0.3662      0.2116      0.1059       0.000    
  20    10.00       9.920       9.797       9.645       9.540       9.467       9.377       9.261       9.126       8.985    
        8.808       8.595       8.323       8.080       7.888       7.634       7.362       7.219       7.096       6.959    
        6.815       6.666       6.518       6.416       6.362       6.316       6.258       6.195       6.103       5.990    
        5.855       5.680       5.427       5.147       4.855       4.578       4.307       3.872       3.333       2.903    
        2.457       1.981       1.605       1.255      0.8949      0.5427      0.3180      0.2134      0.1078       0.000    
  21    10.00       9.874       9.748       9.625       9.516       9.434       9.336       9.190       9.055       8.920    
        8.695       8.432       8.181       7.983       7.778       7.533       7.337       7.211       7.073       6.924    
        6.751       6.582       6.452       6.349       6.270       6.203       6.158       6.105       6.015       5.922    
        5.804       5.622       5.387       5.128       4.854       4.580       4.198       3.757       3.286       2.774    
        2.326       1.880       1.555       1.234      0.7771      0.4578      0.3257      0.2375      0.1141       0.000    
  22    10.00       9.856       9.708       9.589       9.497       9.400       9.259       9.116       8.997       8.823    
        8.588       8.317       8.102       7.938       7.714       7.488       7.321       7.193       7.056       6.878    
        6.680       6.510       6.346       6.195       6.094       6.046       6.015       5.957       5.905       5.839    
        5.726       5.560       5.364       5.110       4.838       4.567       4.162       3.711       3.157       2.654    
        2.266       1.862       1.502       1.026      0.6382      0.4583      0.3443      0.2288      9.0789E-02   0.000    
  23    10.00       9.825       9.682       9.583       9.484       9.341       9.184       9.073       8.926       8.746    
        8.510       8.270       8.103       7.896       7.653       7.456       7.315       7.198       7.045       6.834    
        6.621       6.423       6.208       5.948       5.715       5.681       5.751       5.774       5.784       5.747    
        5.659       5.508       5.319       5.101       4.830       4.535       4.150       3.587       3.005       2.590    
        2.220       1.761       1.246      0.8356      0.6213      0.4696      0.3432      0.2175      0.1012       0.000    
  24    10.00       9.802       9.699       9.586       9.447       9.292       9.169       9.048       8.904       8.698    
        8.481       8.293       8.108       7.858       7.600       7.443       7.328       7.208       7.026       6.813    
        6.604       6.378       6.050       5.452       4.540       4.887       5.317       5.561       5.657       5.656    
        5.587       5.452       5.285       5.056       4.793       4.492       4.014       3.420       2.925       2.486    
        2.037       1.555       1.101      0.7952      0.6169      0.4660      0.3347      0.2535      0.1395       0.000    
  25    10.00       9.828       9.719       9.584       9.438       9.299       9.173       9.058       8.882       8.676    
        8.494       8.312       8.085       7.808       7.608       7.467       7.340       7.200       7.031       6.837    
        6.614       6.391       5.800       4.508       1.497       4.002       4.936       5.370       5.553       5.584    
        5.527       5.417       5.237       4.969       4.693       4.340       3.854       3.285       2.835       2.360    
        1.844       1.391       1.022      0.7850      0.6408      0.5005      0.3655      0.2693      0.1757       0.000    
  26    10.00       9.853       9.751       9.606       9.455       9.333       9.202       9.056       8.874       8.713    
        8.554       8.308       8.020       7.785       7.640       7.515       7.366       7.186       7.007       6.841    
        6.672       6.435       5.909       4.998       4.017       4.552       5.096       5.398       5.540       5.549    
        5.470       5.360       5.156       4.895       4.631       4.250       3.621       3.104       2.730       2.155    
        1.598       1.225       1.009      0.8507      0.6976      0.5423      0.4018      0.2942      0.1756       0.000    
  27    10.00       9.886       9.762       9.638       9.504       9.362       9.231       9.089       8.925       8.768    
        8.550       8.257       8.007       7.815       7.689       7.548       7.352       7.155       7.011       6.882    
        6.746       6.510       6.129       5.651       5.147       5.196       5.385       5.525       5.579       5.529    
        5.430       5.309       5.116       4.854       4.508       3.933       3.358       2.963       2.398       1.843    
        1.449       1.207       1.051      0.9166      0.7753      0.5963      0.4291      0.3211      0.2158       0.000    
  28    10.00       9.897       9.792       9.674       9.551       9.417       9.280       9.136       8.979       8.794    
        8.523       8.255       8.035       7.851       7.720       7.573       7.407       7.219       7.036       6.911    
        6.793       6.629       6.387       6.057       5.762       5.627       5.632       5.668       5.629       5.533    
        5.396       5.254       5.035       4.695       4.215       3.642       3.174       2.648       2.101       1.738    
        1.454       1.256       1.101      0.9678      0.8226      0.6513      0.4858      0.3649      0.2224       0.000    
  29    10.00       9.902       9.803       9.714       9.596       9.472       9.340       9.194       9.024       8.775    
        8.506       8.268       8.055       7.901       7.746       7.586       7.434       7.285       7.117       6.963    
        6.840       6.705       6.545       6.351       6.090       5.934       5.856       5.791       5.694       5.510    
        5.330       5.107       4.863       4.427       3.899       3.415       2.949       2.432       2.022       1.762    
        1.531       1.313       1.144       1.014      0.8726      0.6970      0.5266      0.3853      0.2246       0.000    
  30    10.00       9.910       9.828       9.750       9.647       9.532       9.414       9.249       9.034       8.776    
        8.497       8.251       8.072       7.915       7.758       7.605       7.477       7.352       7.203       7.040    
        6.898       6.776       6.639       6.497       6.312       6.130       6.026       5.888       5.712       5.466    
        5.190       4.873       4.574       4.155       3.756       3.316       2.845       2.379       2.083       1.847    
        1.586       1.372       1.209       1.054      0.8947      0.7393      0.5607      0.4013      0.2424       0.000    
  31    10.00       9.925       9.854       9.781       9.705       9.614       9.483       9.285       9.033       8.763    
        8.491       8.260       8.087       7.923       7.782       7.638       7.507       7.410       7.260       7.104    
        6.968       6.837       6.710       6.552       6.395       6.252       6.114       5.944       5.686       5.366    
        4.987       4.643       4.364       4.065       3.684       3.237       2.796       2.419       2.183       1.969    
        1.699       1.452       1.262       1.098      0.9398      0.7752      0.5964      0.4284      0.2357       0.000    
  32    10.00       9.937       9.882       9.818       9.744       9.660       9.528       9.300       9.061       8.813    
        8.521       8.278       8.102       7.945       7.797       7.672       7.557       7.432       7.305       7.158    
        7.003       6.861       6.711       6.541       6.414       6.319       6.166       5.915       5.559       5.174    
        4.824       4.536       4.276       4.007       3.650       3.255       2.887       2.560       2.307       2.067    
        1.814       1.557       1.354       1.163      0.9820      0.8334      0.6504      0.4284      0.2127       0.000    
  33    10.00       9.945       9.900       9.848       9.776       9.680       9.509       9.287       9.087       8.852    
        8.563       8.318       8.131       7.954       7.810       7.706       7.601       7.472       7.332       7.177    
        7.017       6.855       6.672       6.525       6.431       6.334       6.089       5.748       5.405       5.083    
        4.774       4.534       4.287       3.966       3.638       3.286       2.974       2.710       2.446       2.182    
        1.947       1.703       1.481       1.280       1.080      0.9037      0.6982      0.4367      0.2057       0.000    
  34    10.00       9.950       9.920       9.874       9.784       9.649       9.483       9.319       9.111       8.853    
        8.593       8.348       8.142       7.959       7.835       7.752       7.635       7.496       7.329       7.175    
        7.013       6.816       6.642       6.514       6.410       6.239       5.948       5.666       5.345       5.004    
        4.753       4.561       4.331       4.019       3.695       3.379       3.093       2.855       2.586       2.322    
        2.098       1.874       1.639       1.434       1.221       1.014      0.7532      0.4837      0.2550       0.000    
  35    10.00       9.959       9.924       9.865       9.751       9.608       9.486       9.345       9.150       8.868    
        8.586       8.353       8.140       7.986       7.883       7.787       7.653       7.489       7.317       7.140    
        6.949       6.759       6.582       6.458       6.340       6.177       5.900       5.580       5.248       4.939    
        4.761       4.572       4.334       4.098       3.825       3.495       3.211       3.020       2.749       2.456    
        2.246       2.023       1.799       1.598       1.361       1.130      0.8675      0.5789      0.2893       0.000    
  36    10.00       9.956       9.906       9.839       9.725       9.588       9.478       9.343       9.145       8.877    
        8.579       8.322       8.163       8.044       7.942       7.812       7.643       7.473       7.274       7.021    
        6.820       6.662       6.514       6.404       6.297       6.105       5.805       5.488       5.159       4.902    
        4.742       4.581       4.368       4.149       3.918       3.620       3.339       3.132       2.895       2.581    
        2.346       2.120       1.892       1.726       1.498       1.242      0.9802      0.6789      0.3453       0.000    
  37    10.00       9.941       9.885       9.812       9.696       9.571       9.446       9.314       9.130       8.839    
        8.534       8.324       8.227       8.109       7.968       7.828       7.620       7.402       7.130       6.866    
        6.736       6.611       6.468       6.346       6.213       5.977       5.708       5.373       5.099       4.922    
        4.769       4.598       4.382       4.194       3.955       3.671       3.451       3.251       2.989       2.676    
        2.395       2.175       1.994       1.809       1.592       1.355       1.104      0.7661      0.4150       0.000    
  38    10.00       9.934       9.861       9.782       9.675       9.551       9.410       9.272       9.074       8.803    
        8.569       8.401       8.275       8.161       7.992       7.761       7.512       7.225       6.927       6.773    
        6.673       6.512       6.362       6.263       6.105       5.874       5.556       5.267       5.120       4.981    
        4.811       4.620       4.417       4.227       3.994       3.736       3.540       3.336       3.024       2.698    
        2.454       2.251       2.067       1.882       1.689       1.461       1.201      0.8765      0.4547       0.000    
  39    10.00       9.916       9.841       9.762       9.656       9.516       9.364       9.217       9.035       8.815    
        8.630       8.503       8.357       8.183       7.911       7.599       7.282       6.973       6.801       6.713    
        6.557       6.379       6.273       6.178       6.026       5.760       5.463       5.291       5.164       5.017    
        4.834       4.655       4.450       4.248       4.051       3.840       3.614       3.377       3.057       2.736    
        2.480       2.276       2.133       1.986       1.777       1.543       1.282      0.9286      0.4547       0.000    
  40    10.00       9.901       9.828       9.748       9.640       9.493       9.335       9.186       9.031       8.847    
        8.693       8.579       8.382       8.086       7.729       7.377       7.060       6.858       6.753       6.630    
        6.454       6.305       6.213       6.087       5.913       5.697       5.512       5.345       5.196       5.057    
        4.887       4.689       4.483       4.294       4.114       3.900       3.657       3.420       3.072       2.722    
        2.491       2.322       2.173       2.047       1.835       1.575       1.335      0.9648      0.4763       0.000    
  41    10.00       9.908       9.822       9.733       9.612       9.478       9.340       9.205       9.056       8.890    
        8.742       8.595       8.313       7.927       7.534       7.218       6.975       6.809       6.696       6.551    
        6.371       6.246       6.136       6.002       5.854       5.707       5.574       5.413       5.235       5.075    
        4.922       4.735       4.527       4.356       4.169       3.960       3.712       3.382       2.997       2.728    
        2.541       2.365       2.228       2.069       1.846       1.588       1.376       1.024      0.5243       0.000    
  42    10.00       9.910       9.814       9.731       9.626       9.501       9.362       9.211       9.076       8.946    
        8.762       8.487       8.130       7.732       7.380       7.140       6.931       6.775       6.640       6.466    
        6.301       6.183       6.069       5.977       5.856       5.750       5.627       5.441       5.251       5.109    
        4.977       4.774       4.552       4.392       4.232       3.998       3.679       3.284       2.943       2.739    
        2.589       2.440       2.271       2.064       1.832       1.625       1.411       1.066      0.5485       0.000    
  43    10.00       9.911       9.822       9.737       9.653       9.541       9.401       9.251       9.102       8.910    
        8.635       8.317       7.953       7.571       7.303       7.103       6.905       6.739       6.575       6.401    
        6.249       6.138       6.057       5.987       5.882       5.768       5.647       5.465       5.296       5.181    
        5.013       4.791       4.583       4.425       4.241       3.955       3.581       3.200       2.963       2.802    
        2.644       2.483       2.276       2.053       1.842       1.641       1.449       1.063      0.4788       0.000    
  44    10.00       9.905       9.824       9.750       9.657       9.570       9.451       9.266       9.061       8.790    
        8.510       8.176       7.779       7.503       7.297       7.075       6.859       6.667       6.488       6.334    
        6.226       6.140       6.066       5.994       5.903       5.787       5.644       5.502       5.371       5.227    
        5.065       4.865       4.630       4.407       4.191       3.899       3.509       3.181       2.991       2.835    
        2.684       2.506       2.299       2.100       1.879       1.656       1.405      0.9101      0.4022       0.000    
  45    10.00       9.905       9.838       9.753       9.665       9.587       9.410       9.197       8.953       8.686    
        8.452       8.051       7.683       7.478       7.265       7.022       6.776       6.579       6.423       6.314    
        6.238       6.163       6.086       5.999       5.902       5.795       5.676       5.556       5.449       5.301    
        5.107       4.893       4.655       4.386       4.141       3.824       3.458       3.200       3.044       2.888    
        2.691       2.486       2.304       2.124       1.931       1.692       1.267      0.7628      0.3863       0.000    
  46    10.00       9.922       9.850       9.759       9.662       9.513       9.326       9.149       8.926       8.665    
        8.326       7.958       7.663       7.406       7.189       6.948       6.702       6.549       6.433       6.333    
        6.263       6.194       6.101       5.998       5.902       5.808       5.711       5.604       5.497       5.360    
        5.180       4.956       4.692       4.388       4.047       3.707       3.441       3.265       3.092       2.912    
        2.686       2.472       2.291       2.147       1.939       1.605       1.136      0.7184      0.3650       0.000    
  47    10.00       9.939       9.872       9.777       9.608       9.429       9.268       9.116       8.916       8.590    
        8.225       7.883       7.599       7.383       7.151       6.884       6.672       6.536       6.444       6.362    
        6.287       6.206       6.114       6.012       5.918       5.837       5.751       5.646       5.522       5.387    
        5.227       5.028       4.687       4.284       3.964       3.714       3.483       3.332       3.173       2.923    
        2.654       2.429       2.261       2.143       1.883       1.485       1.054      0.6912      0.3548       0.000    
  48    10.00       9.946       9.875       9.733       9.562       9.413       9.242       9.088       8.875       8.530    
        8.133       7.823       7.593       7.336       7.065       6.826       6.667       6.535       6.446       6.385    
        6.310       6.212       6.111       6.023       5.947       5.879       5.797       5.680       5.534       5.376    
        5.211       4.982       4.630       4.300       4.020       3.772       3.556       3.385       3.180       2.880    
        2.596       2.415       2.275       2.055       1.707       1.351       1.006      0.6961      0.3745       0.000    
  49    10.00       9.943       9.842       9.714       9.574       9.401       9.229       9.056       8.792       8.427    
        8.085       7.795       7.518       7.274       7.065       6.840       6.635       6.515       6.457       6.398    
        6.327       6.217       6.105       6.032       5.970       5.916       5.824       5.682       5.516       5.365    
        5.192       4.913       4.615       4.394       4.138       3.847       3.585       3.379       3.142       2.823    
        2.593       2.435       2.226       1.894       1.585       1.294      0.9949      0.6960      0.3732       0.000    
  50    10.00       9.935       9.830       9.700       9.573       9.411       9.218       9.003       8.724       8.436    
        8.078       7.716       7.458       7.264       7.088       6.834       6.607       6.517       6.465       6.406    
        6.335       6.221       6.107       6.036       5.983       5.933       5.829       5.666       5.498       5.355    
        5.177       4.890       4.660       4.461       4.193       3.904       3.630       3.347       3.024       2.757    
        2.638       2.459       2.136       1.803       1.574       1.292       1.009      0.6816      0.3039       0.000    

 HEAD WILL BE SAVED ON UNIT   51 AT END OF TIME STEP   9, STRESS PERIOD    2

 DRAWDOWN WILL BE SAVED ON UNIT   52 AT END OF TIME STEP   9, STRESS PERIOD    2
1
  VOLUMETRIC BUDGET FOR ENTIRE MODEL AT END OF TIME STEP  9 IN STRESS PERIOD   2
  ------------------------------------------------------------------------------

     CUMULATIVE VOLUMES      L**3       RATES FOR THIS TIME STEP      L**3/T
     ------------------                 ------------------------

           IN:                                      IN:
           ---                                      ---
             STORAGE =        4499.9468               STORAGE =         499.9687
       CONSTANT HEAD =        5970.9478         CONSTANT HEAD =         597.1197
               WELLS =           0.0000                 WELLS =           0.0000

            TOTAL IN =       10470.8945              TOTAL IN =        1097.0884

          OUT:                                     OUT:
          ----                                     ----
             STORAGE =       9.3846E-03               STORAGE =       3.1198E-05
       CONSTANT HEAD =        5970.8853         CONSTANT HEAD =         597.0883
               WELLS =        4500.0000                 WELLS =         500.0000

           TOTAL OUT =       10470.8945             TOTAL OUT =        1097.0883

            IN - OUT =           0.0000              IN - OUT =       1.2207E-04

 PERCENT DISCREPANCY =           0.00     PERCENT DISCREPANCY =           0.00






          TIME SUMMARY AT END OF TIME STEP   9 IN STRESS PERIOD    2
                    SECONDS     MINUTES      HOURS       DAYS        YEARS
                    -----------------------------------------------------------
   TIME STEP LENGTH  86400.      1440.0      24.000      1.0000     2.73785E-03
 STRESS PERIOD TIME 7.77600E+05  12960.      216.00      9.0000     2.46407E-02
         TOTAL TIME 8.64000E+05  14400.      240.00      10.000     2.73785E-02
1
 
 SOLVING FOR HEAD 

 OUTPUT CONTROL FOR STRESS PERIOD    2   TIME STEP  10
    SAVE HEAD FOR ALL LAYERS
    SAVE DRAWDOWN FOR ALL LAYERS
    SAVE BUDGET
    PRINT HEAD FOR ALL LAYERS
    PRINT BUDGET
 UBDSV1 SAVING "         STORAGE" ON UNIT  53 AT TIME STEP 10, STRESS PERIOD   2
 UBDSV2 SAVING "   CONSTANT HEAD" ON UNIT  53 AT TIME STEP 10, STRESS PERIOD   2
 UBDSV1 SAVING "FLOW RIGHT FACE " ON UNIT  53 AT TIME STEP 10, STRESS PERIOD   2
 UBDSV1 SAVING "FLOW FRONT FACE " ON UNIT  53 AT TIME STEP 10, STRESS PERIOD   2
1
              HEAD IN LAYER   1 AT END OF TIME STEP  10 IN STRESS PERIOD    2
  ---------------------------------------------------------------------------

            1           2           3           4           5           6           7           8           9          10
           11          12          13          14          15          16          17          18          19          20
           21          22          23          24          25          26          27          28          29          30
           31          32          33          34          35          36          37          38          39          40
           41          42          43          44          45          46          47          48          49          50
 ........................................................................................................................
   1    10.00       9.960       9.902       9.836       9.772       9.700       9.631       9.563       9.478       9.394    
        9.330       9.266       9.201       9.137       9.035       8.911       8.773       8.664       8.608       8.542    
        8.463       8.399       8.335       8.261       8.161       7.964       7.740       7.584       7.430       7.285    
        7.096       6.795       6.409       5.982       5.540       5.070       4.605       4.218       3.713       3.165    
        2.715       2.285       1.807       1.408       1.161      0.9524      0.7868      0.6669      0.4476       0.000    
   2    10.00       9.959       9.906       9.840       9.775       9.711       9.643       9.554       9.461       9.392    
        9.336       9.282       9.227       9.149       9.031       8.901       8.772       8.664       8.607       8.533    
        8.454       8.405       8.354       8.277       8.151       7.958       7.756       7.594       7.438       7.296    
        7.086       6.770       6.366       5.880       5.408       4.954       4.551       4.178       3.664       3.134    
        2.682       2.198       1.763       1.449       1.217       1.037      0.8317      0.6492      0.3621       0.000    
   3    10.00       9.953       9.901       9.842       9.785       9.720       9.633       9.539       9.473       9.412    
        9.349       9.299       9.251       9.175       9.055       8.896       8.755       8.668       8.600       8.525    
        8.460       8.410       8.358       8.255       8.119       7.948       7.772       7.645       7.464       7.278    
        7.014       6.640       6.182       5.712       5.292       4.867       4.472       4.072       3.540       3.049    
        2.661       2.214       1.814       1.526       1.295       1.109      0.8654      0.5802      0.2630       0.000    
   4    10.00       9.953       9.902       9.845       9.781       9.705       9.616       9.544       9.487       9.424    
        9.369       9.327       9.273       9.188       9.071       8.902       8.755       8.673       8.598       8.531    
        8.462       8.400       8.334       8.228       8.093       7.941       7.782       7.626       7.466       7.256    
        6.925       6.434       5.949       5.592       5.239       4.799       4.324       3.855       3.430       3.057    
        2.693       2.277       1.900       1.639       1.379       1.142      0.8410      0.5220      0.2500       0.000    
   5    10.00       9.950       9.899       9.834       9.769       9.699       9.619       9.557       9.498       9.439    
        9.391       9.350       9.280       9.180       9.052       8.898       8.774       8.685       8.610       8.521    
        8.440       8.374       8.294       8.189       8.069       7.914       7.757       7.613       7.450       7.198    
        6.728       6.183       5.795       5.513       5.163       4.685       4.194       3.767       3.446       3.108    
        2.749       2.365       1.990       1.746       1.467       1.125      0.7657      0.4656      0.2342       0.000    
   6    10.00       9.943       9.882       9.829       9.769       9.693       9.625       9.572       9.510       9.454    
        9.409       9.360       9.272       9.160       9.049       8.920       8.795       8.693       8.595       8.494    
        8.412       8.336       8.266       8.172       8.020       7.869       7.740       7.594       7.371       6.993    
        6.480       5.989       5.664       5.418       5.101       4.627       4.136       3.771       3.499       3.191    
        2.860       2.520       2.135       1.808       1.438       1.061      0.6765      0.4019      0.2213       0.000    
   7    10.00       9.932       9.873       9.823       9.762       9.698       9.638       9.587       9.530       9.476    
        9.420       9.346       9.251       9.146       9.040       8.939       8.809       8.673       8.561       8.461    
        8.377       8.303       8.242       8.128       7.973       7.843       7.714       7.523       7.175       6.697    
        6.205       5.805       5.580       5.358       4.989       4.546       4.212       3.854       3.554       3.350    
        3.033       2.667       2.214       1.748       1.334      0.9219      0.5831      0.4050      0.2085       0.000    
   8    10.00       9.931       9.878       9.822       9.760       9.704       9.651       9.600       9.548       9.495    
        9.423       9.329       9.235       9.136       9.039       8.927       8.767       8.624       8.534       8.438    
        8.344       8.280       8.194       8.074       7.940       7.805       7.592       7.300       6.872       6.453    
        6.077       5.757       5.546       5.291       4.898       4.528       4.226       3.960       3.722       3.484    
        3.175       2.713       2.156       1.659       1.228      0.8635      0.6175      0.3969      0.1902       0.000    
   9    10.00       9.942       9.877       9.816       9.770       9.724       9.671       9.617       9.559       9.503    
        9.420       9.315       9.213       9.114       9.011       8.881       8.728       8.597       8.499       8.403    
        8.319       8.238       8.125       8.012       7.892       7.731       7.433       7.042       6.644       6.336    
        6.022       5.747       5.512       5.190       4.822       4.508       4.276       4.074       3.859       3.597    
        3.225       2.720       2.152       1.658       1.238      0.8830      0.6233      0.4005      0.2048       0.000    
  10    10.00       9.940       9.872       9.821       9.779       9.734       9.686       9.640       9.574       9.492    
        9.392       9.283       9.186       9.095       8.990       8.832       8.672       8.559       8.469       8.378    
        8.299       8.193       8.067       7.944       7.807       7.586       7.218       6.810       6.461       6.212    
        6.003       5.759       5.478       5.148       4.797       4.524       4.338       4.161       3.928       3.628    
        3.201       2.678       2.158       1.736       1.341      0.9723      0.6430      0.4254      0.2286       0.000    
  11    10.00       9.927       9.872       9.831       9.789       9.751       9.707       9.643       9.553       9.462    
        9.363       9.257       9.168       9.060       8.920       8.771       8.639       8.540       8.457       8.365    
        8.254       8.122       7.961       7.821       7.609       7.309       6.991       6.677       6.372       6.174    
        6.008       5.709       5.393       5.117       4.840       4.618       4.421       4.193       3.905       3.543    
        3.142       2.737       2.236       1.819       1.443       1.076      0.7227      0.4178      0.1752       0.000    
  12    10.00       9.930       9.879       9.835       9.800       9.760       9.710       9.622       9.518       9.432    
        9.341       9.231       9.124       8.999       8.877       8.741       8.615       8.528       8.440       8.320    
        8.147       7.959       7.774       7.586       7.311       7.080       6.879       6.577       6.311       6.140    
        5.947       5.679       5.404       5.140       4.927       4.714       4.459       4.182       3.832       3.467    
        3.126       2.759       2.275       1.864       1.509       1.125      0.7607      0.3943      0.1308       0.000    
  13    10.00       9.943       9.895       9.849       9.807       9.760       9.682       9.581       9.484       9.397    
        9.296       9.191       9.082       8.953       8.821       8.694       8.603       8.501       8.389       8.174    
        7.925       7.728       7.526       7.284       7.068       6.940       6.721       6.453       6.289       6.125    
        5.888       5.640       5.416       5.201       5.010       4.810       4.503       4.125       3.785       3.439    
        3.112       2.731       2.212       1.830       1.525       1.116      0.6997      0.3407      0.1043       0.000    
  14    10.00       9.956       9.915       9.866       9.809       9.732       9.631       9.531       9.445       9.350    
        9.248       9.151       9.030       8.898       8.784       8.674       8.546       8.422       8.218       7.910    
        7.673       7.482       7.222       7.025       6.910       6.789       6.575       6.395       6.244       6.076    
        5.859       5.654       5.481       5.278       5.065       4.858       4.513       4.098       3.745       3.389    
        3.052       2.579       2.085       1.784       1.438       1.071      0.7017      0.3159      8.9963E-02   0.000    
  15    10.00       9.965       9.922       9.868       9.800       9.690       9.568       9.481       9.401       9.309    
        9.229       9.131       8.980       8.833       8.731       8.575       8.420       8.291       7.995       7.662    
        7.446       7.198       6.970       6.881       6.805       6.667       6.482       6.311       6.184       6.042    
        5.856       5.694       5.538       5.352       5.134       4.878       4.477       4.019       3.648       3.321    
        2.960       2.483       2.092       1.715       1.304      0.9803      0.6277      0.2900      9.8102E-02   0.000    
  16    10.00       9.971       9.925       9.859       9.760       9.629       9.521       9.452       9.383       9.291    
        9.196       9.058       8.877       8.739       8.600       8.427       8.323       8.082       7.676       7.382    
        7.183       6.963       6.865       6.802       6.687       6.519       6.369       6.265       6.171       6.039    
        5.872       5.717       5.583       5.396       5.132       4.795       4.342       3.947       3.649       3.300    
        2.881       2.410       1.990       1.582       1.228      0.8691      0.5637      0.2932      0.1046       0.000    
  17    10.00       9.967       9.912       9.824       9.712       9.578       9.483       9.424       9.343       9.247    
        9.086       8.898       8.751       8.616       8.445       8.279       8.077       7.703       7.357       7.164    
        7.000       6.865       6.794       6.678       6.510       6.386       6.326       6.265       6.169       6.023    
        5.872       5.728       5.585       5.405       5.045       4.608       4.257       3.991       3.699       3.276    
        2.745       2.285       1.895       1.512       1.102      0.7256      0.4810      0.2665      0.1110       0.000    
  18    10.00       9.954       9.884       9.782       9.636       9.524       9.458       9.372       9.275       9.137    
        8.939       8.786       8.652       8.456       8.240       8.019       7.741       7.412       7.191       7.035    
        6.905       6.785       6.675       6.524       6.399       6.346       6.312       6.261       6.159       6.016    
        5.876       5.727       5.545       5.273       4.909       4.550       4.265       4.045       3.678       3.162    
        2.650       2.168       1.776       1.417       1.024      0.6698      0.4068      0.2228      0.1040       0.000    
  19    10.00       9.938       9.858       9.711       9.567       9.502       9.420       9.309       9.195       9.041    
        8.868       8.720       8.513       8.241       8.020       7.803       7.502       7.224       7.078       6.974    
        6.836       6.690       6.568       6.435       6.359       6.323       6.287       6.225       6.125       6.002    
        5.868       5.702       5.461       5.172       4.863       4.552       4.301       4.019       3.505       2.999    
        2.594       2.102       1.677       1.327      0.9408      0.6039      0.3662      0.2116      0.1059       0.000    
  20    10.00       9.920       9.797       9.645       9.540       9.467       9.377       9.261       9.126       8.985    
        8.807       8.593       8.318       8.072       7.877       7.616       7.338       7.191       7.066       6.925    
        6.779       6.627       6.479       6.376       6.322       6.277       6.220       6.159       6.070       5.960    
        5.831       5.662       5.414       5.139       4.850       4.574       4.305       3.871       3.333       2.903    
        2.457       1.981       1.605       1.255      0.8949      0.5427      0.3180      0.2134      0.1078       0.000    
  21    10.00       9.874       9.748       9.625       9.516       9.434       9.336       9.190       9.054       8.920    
        8.693       8.428       8.174       7.973       7.764       7.513       7.311       7.183       7.041       6.889    
        6.711       6.541       6.409       6.306       6.227       6.160       6.115       6.064       5.977       5.888    
        5.776       5.601       5.372       5.118       4.848       4.576       4.196       3.756       3.285       2.774    
        2.326       1.880       1.555       1.234      0.7771      0.4578      0.3257      0.2375      0.1141       0.000    
  22    10.00       9.856       9.708       9.589       9.497       9.400       9.259       9.115       8.997       8.822    
        8.586       8.313       8.094       7.927       7.698       7.466       7.295       7.163       7.022       6.840    
        6.638       6.466       6.299       6.147       6.045       5.998       5.967       5.910       5.862       5.801    
        5.695       5.536       5.347       5.099       4.831       4.562       4.160       3.710       3.157       2.654    
        2.266       1.862       1.502       1.026      0.6382      0.4583      0.3443      0.2288      9.0789E-02   0.000    
  23    10.00       9.825       9.682       9.583       9.484       9.340       9.184       9.073       8.925       8.745    
        8.507       8.264       8.095       7.884       7.636       7.432       7.288       7.167       7.010       6.794    
        6.577       6.376       6.158       5.895       5.660       5.624       5.696       5.722       5.736       5.706    
        5.625       5.482       5.301       5.089       4.823       4.531       4.148       3.587       3.004       2.590    
        2.220       1.761       1.246      0.8356      0.6213      0.4696      0.3432      0.2175      0.1012       0.000    
  24    10.00       9.802       9.699       9.586       9.447       9.292       9.168       9.048       8.903       8.696    
        8.478       8.288       8.100       7.845       7.581       7.420       7.301       7.177       6.990       6.772    
        6.558       6.328       5.996       5.393       4.474       4.818       5.252       5.501       5.605       5.612    
        5.551       5.426       5.266       5.043       4.785       4.488       4.012       3.420       2.924       2.486    
        2.037       1.555       1.101      0.7952      0.6169      0.4660      0.3347      0.2535      0.1395       0.000    
  25    10.00       9.828       9.719       9.584       9.438       9.299       9.173       9.058       8.880       8.674    
        8.490       8.306       8.076       7.794       7.589       7.444       7.313       7.169       6.995       6.795    
        6.567       6.341       5.742       4.440       1.418       3.925       4.863       5.305       5.498       5.539    
        5.491       5.389       5.218       4.957       4.686       4.336       3.852       3.285       2.835       2.360    
        1.844       1.391       1.022      0.7850      0.6408      0.5005      0.3655      0.2693      0.1757       0.000    
  26    10.00       9.853       9.751       9.606       9.455       9.332       9.201       9.055       8.873       8.711    
        8.551       8.303       8.011       7.771       7.622       7.494       7.341       7.154       6.970       6.799    
        6.627       6.384       5.849       4.928       3.940       4.473       5.020       5.330       5.482       5.505    
        5.436       5.334       5.139       4.884       4.624       4.246       3.620       3.104       2.729       2.155    
        1.598       1.225       1.009      0.8507      0.6976      0.5423      0.4018      0.2942      0.1756       0.000    
  27    10.00       9.886       9.762       9.638       9.503       9.361       9.231       9.089       8.924       8.766    
        8.547       8.252       7.998       7.803       7.674       7.529       7.327       7.123       6.975       6.842    
        6.702       6.460       6.071       5.585       5.072       5.119       5.311       5.459       5.525       5.488    
        5.398       5.285       5.099       4.843       4.502       3.931       3.357       2.962       2.398       1.843    
        1.449       1.207       1.051      0.9166      0.7753      0.5963      0.4291      0.3211      0.2158       0.000    
  28    10.00       9.897       9.792       9.674       9.551       9.417       9.280       9.136       8.978       8.793    
        8.520       8.250       8.028       7.840       7.706       7.555       7.384       7.190       7.001       6.873    
        6.751       6.583       6.334       5.996       5.693       5.557       5.565       5.609       5.579       5.495    
        5.368       5.233       5.021       4.687       4.212       3.641       3.173       2.648       2.101       1.738    
        1.454       1.256       1.101      0.9678      0.8226      0.6513      0.4858      0.3649      0.2224       0.000    
  29    10.00       9.902       9.803       9.714       9.596       9.472       9.340       9.193       9.024       8.773    
        8.503       8.263       8.048       7.892       7.733       7.571       7.414       7.260       7.086       6.928    
        6.800       6.662       6.497       6.298       6.030       5.873       5.799       5.740       5.652       5.480    
        5.308       5.092       4.853       4.423       3.897       3.414       2.949       2.432       2.022       1.762    
        1.531       1.313       1.144       1.014      0.8726      0.6969      0.5266      0.3853      0.2246       0.000    
  30    10.00       9.910       9.828       9.750       9.647       9.532       9.413       9.248       9.034       8.775    
        8.494       8.247       8.066       7.907       7.747       7.591       7.459       7.331       7.177       7.009    
        6.863       6.738       6.597       6.452       6.266       6.084       5.983       5.848       5.681       5.445    
        5.175       4.864       4.569       4.153       3.755       3.316       2.845       2.379       2.083       1.847    
        1.586       1.372       1.209       1.054      0.8947      0.7393      0.5607      0.4013      0.2424       0.000    
  31    10.00       9.925       9.854       9.781       9.705       9.614       9.482       9.284       9.033       8.762    
        8.489       8.257       8.082       7.916       7.773       7.626       7.492       7.392       7.239       7.079    
        6.939       6.805       6.677       6.519       6.365       6.221       6.083       5.916       5.664       5.352    
        4.979       4.639       4.361       4.064       3.683       3.237       2.796       2.419       2.182       1.969    
        1.698       1.452       1.262       1.098      0.9398      0.7752      0.5964      0.4284      0.2357       0.000    
  32    10.00       9.937       9.882       9.818       9.744       9.660       9.528       9.300       9.061       8.812    
        8.519       8.275       8.098       7.940       7.790       7.663       7.545       7.418       7.288       7.138    
        6.981       6.836       6.687       6.518       6.392       6.296       6.143       5.897       5.548       5.168    
        4.820       4.534       4.274       4.006       3.650       3.255       2.887       2.560       2.307       2.066    
        1.814       1.557       1.354       1.163      0.9820      0.8334      0.6504      0.4284      0.2127       0.000    
  33    10.00       9.945       9.900       9.848       9.776       9.680       9.509       9.287       9.087       8.852    
        8.562       8.316       8.128       7.950       7.805       7.699       7.592       7.462       7.319       7.162    
        7.000       6.837       6.655       6.508       6.413       6.316       6.075       5.739       5.400       5.080    
        4.771       4.532       4.286       3.965       3.637       3.286       2.974       2.710       2.446       2.182    
        1.947       1.703       1.481       1.280       1.080      0.9037      0.6982      0.4367      0.2057       0.000    
  34    10.00       9.950       9.920       9.874       9.784       9.649       9.483       9.319       9.111       8.853    
        8.592       8.347       8.140       7.956       7.830       7.746       7.629       7.488       7.320       7.165    
        7.002       6.804       6.630       6.501       6.397       6.228       5.941       5.660       5.342       5.002    
        4.752       4.560       4.331       4.019       3.695       3.379       3.092       2.855       2.586       2.322    
        2.098       1.874       1.639       1.434       1.221       1.014      0.7532      0.4837      0.2550       0.000    
  35    10.00       9.959       9.924       9.865       9.751       9.608       9.486       9.345       9.150       8.868    
        8.586       8.352       8.139       7.983       7.880       7.783       7.648       7.483       7.311       7.133    
        6.942       6.752       6.575       6.450       6.332       6.171       5.896       5.578       5.246       4.938    
        4.761       4.571       4.334       4.097       3.825       3.495       3.211       3.020       2.749       2.456    
        2.246       2.023       1.799       1.598       1.361       1.130      0.8675      0.5789      0.2893       0.000    
  36    10.00       9.956       9.906       9.839       9.725       9.588       9.478       9.343       9.145       8.877    
        8.578       8.321       8.161       8.042       7.939       7.810       7.640       7.469       7.270       7.017    
        6.817       6.658       6.510       6.399       6.292       6.101       5.803       5.486       5.158       4.902    
        4.742       4.580       4.368       4.149       3.918       3.620       3.339       3.132       2.895       2.581    
        2.346       2.120       1.892       1.726       1.498       1.242      0.9802      0.6789      0.3453       0.000    
  37    10.00       9.941       9.885       9.812       9.696       9.571       9.445       9.314       9.130       8.838    
        8.534       8.323       8.226       8.107       7.966       7.826       7.618       7.400       7.127       6.864    
        6.733       6.609       6.465       6.343       6.211       5.975       5.707       5.373       5.099       4.922    
        4.769       4.598       4.382       4.194       3.955       3.671       3.451       3.251       2.989       2.676    
        2.395       2.175       1.994       1.809       1.592       1.355       1.104      0.7661      0.4150       0.000    
  38    10.00       9.934       9.861       9.782       9.675       9.551       9.410       9.272       9.074       8.802    
        8.568       8.400       8.274       8.160       7.991       7.759       7.511       7.224       6.926       6.772    
        6.672       6.510       6.360       6.261       6.104       5.873       5.555       5.267       5.120       4.981    
        4.811       4.620       4.417       4.227       3.994       3.736       3.540       3.336       3.024       2.698    
        2.454       2.251       2.067       1.882       1.689       1.461       1.201      0.8765      0.4547       0.000    
  39    10.00       9.916       9.841       9.762       9.656       9.516       9.364       9.217       9.035       8.815    
        8.630       8.503       8.357       8.183       7.910       7.598       7.282       6.973       6.801       6.712    
        6.557       6.379       6.272       6.177       6.025       5.759       5.462       5.291       5.164       5.017    
        4.834       4.654       4.450       4.248       4.051       3.840       3.614       3.377       3.057       2.736    
        2.480       2.276       2.133       1.986       1.777       1.543       1.282      0.9286      0.4547       0.000    
  40    10.00       9.901       9.828       9.748       9.640       9.493       9.335       9.186       9.031       8.847    
        8.693       8.579       8.382       8.086       7.729       7.377       7.060       6.858       6.753       6.629    
        6.453       6.304       6.213       6.087       5.913       5.697       5.512       5.345       5.196       5.057    
        4.887       4.689       4.483       4.294       4.114       3.900       3.657       3.420       3.072       2.722    
        2.491       2.322       2.173       2.047       1.835       1.575       1.335      0.9648      0.4763       0.000    
  41    10.00       9.908       9.822       9.733       9.612       9.478       9.340       9.205       9.056       8.889    
        8.742       8.595       8.313       7.927       7.534       7.218       6.975       6.809       6.696       6.551    
        6.371       6.246       6.136       6.002       5.854       5.707       5.574       5.413       5.235       5.075    
        4.922       4.735       4.527       4.356       4.169       3.960       3.712       3.382       2.997       2.728    
        2.541       2.365       2.228       2.069       1.846       1.588       1.376       1.024      0.5243       0.000    
  42    10.00       9.910       9.814       9.731       9.626       9.501       9.362       9.211       9.076       8.946    
        8.762       8.487       8.130       7.731       7.380       7.140       6.931       6.775       6.640       6.466    
        6.301       6.183       6.069       5.977       5.856       5.750       5.627       5.441       5.251       5.109    
        4.977       4.774       4.552       4.392       4.232       3.998       3.679       3.284       2.943       2.738    
        2.589       2.440       2.271       2.064       1.832       1.625       1.411       1.066      0.5485       0.000    
  43    10.00       9.911       9.822       9.737       9.653       9.541       9.401       9.251       9.102       8.910    
        8.635       8.317       7.953       7.571       7.303       7.103       6.905       6.739       6.575       6.401    
        6.249       6.138       6.057       5.987       5.882       5.768       5.647       5.465       5.296       5.181    
        5.013       4.791       4.583       4.425       4.241       3.955       3.581       3.200       2.963       2.802    
        2.644       2.483       2.276       2.053       1.842       1.641       1.449       1.063      0.4788       0.000    
  44    10.00       9.905       9.824       9.750       9.657       9.570       9.451       9.266       9.061       8.790    
        8.510       8.176       7.779       7.503       7.297       7.075       6.859       6.667       6.488       6.334    
        6.226       6.140       6.066       5.994       5.903       5.787       5.644       5.502       5.371       5.227    
        5.065       4.865       4.630       4.407       4.191       3.899       3.509       3.181       2.991       2.835    
        2.684       2.506       2.299       2.100       1.879       1.656       1.405      0.9101      0.4022       0.000    
  45    10.00       9.905       9.838       9.753       9.665       9.587       9.410       9.197       8.953       8.686    
        8.452       8.051       7.683       7.478       7.265       7.022       6.776       6.579       6.423       6.314    
        6.238       6.163       6.086       5.999       5.902       5.795       5.676       5.556       5.449       5.301    
        5.107       4.893       4.655       4.386       4.141       3.824       3.458       3.200       3.044       2.888    
        2.691       2.486       2.304       2.124       1.931       1.692       1.267      0.7628      0.3863       0.000    
  46    10.00       9.922       9.850       9.759       9.662       9.513       9.326       9.149       8.926       8.665    
        8.326       7.958       7.663       7.406       7.189       6.948       6.702       6.549       6.433       6.333    
        6.263       6.194       6.101       5.998       5.902       5.808       5.711       5.604       5.497       5.360    
        5.180       4.956       4.692       4.388       4.047       3.707       3.441       3.265       3.092       2.912    
        2.686       2.472       2.291       2.147       1.939       1.605       1.136      0.7184      0.3650       0.000    
  47    10.00       9.939       9.872       9.777       9.608       9.429       9.268       9.116       8.916       8.590    
        8.225       7.883       7.599       7.383       7.151       6.884       6.672       6.536       6.444       6.362    
        6.287       6.206       6.114       6.012       5.918       5.837       5.751       5.646       5.522       5.387    
        5.227       5.028       4.687       4.284       3.964       3.714       3.483       3.332       3.173       2.923    
        2.654       2.429       2.261       2.143       1.883       1.485       1.054      0.6912      0.3548       0.000    
  48    10.00       9.946       9.875       9.733       9.562       9.413       9.242       9.088       8.875       8.530    
        8.133       7.823       7.593       7.336       7.065       6.826       6.667       6.535       6.446       6.385    
        6.310       6.212       6.111       6.023       5.947       5.879       5.797       5.680       5.534       5.376    
        5.211       4.982       4.630       4.300       4.020       3.772       3.556       3.385       3.180       2.880    
        2.596       2.415       2.275       2.055       1.707       1.351       1.006      0.6961      0.3745       0.000    
  49    10.00       9.943       9.842       9.714       9.574       9.401       9.229       9.056       8.792       8.427    
        8.085       7.795       7.518       7.274       7.065       6.840       6.635       6.515       6.457       6.398    
        6.327       6.217       6.105       6.032       5.970       5.916       5.824       5.682       5.516       5.365    
        5.192       4.913       4.615       4.394       4.138       3.847       3.585       3.379       3.142       2.823    
        2.593       2.435       2.226       1.894       1.585       1.294      0.9949      0.6960      0.3732       0.000    
  50    10.00       9.935       9.830       9.700       9.573       9.411       9.218       9.003       8.724       8.436    
        8.078       7.716       7.458       7.264       7.088       6.834       6.607       6.517       6.465       6.406    
        6.335       6.221       6.107       6.036       5.983       5.933       5.829       5.666       5.498       5.355    
        5.177       4.890       4.660       4.461       4.193       3.904       3.630       3.347       3.024       2.757    
        2.638       2.459       2.136       1.803       1.574       1.292       1.009      0.6816      0.3039       0.000    

 HEAD WILL BE SAVED ON UNIT   51 AT END OF TIME STEP  10, STRESS PERIOD    2

 DRAWDOWN WILL BE SAVED ON UNIT   52 AT END OF TIME STEP  10, STRESS PERIOD    2
1
  VOLUMETRIC BUDGET FOR ENTIRE MODEL AT END OF TIME STEP 10 IN STRESS PERIOD   2
  ------------------------------------------------------------------------------

     CUMULATIVE VOLUMES      L**3       RATES FOR THIS TIME STEP      L**3/T
     ------------------                 ------------------------

           IN:                                      IN:
           ---                                      ---
             STORAGE =        4999.8916               STORAGE =         499.9448
       CONSTANT HEAD =        6568.0908         CONSTANT HEAD =         597.1431
               WELLS =           0.0000                 WELLS =           0.0000

            TOTAL IN =       11567.9824              TOTAL IN =        1097.0879

          OUT:                                     OUT:
          ----                                     ----
             STORAGE =       9.4043E-03               STORAGE =       1.9613E-05
       CONSTANT HEAD =        6567.9731         CONSTANT HEAD =         597.0879
               WELLS =        5000.0000                 WELLS =         500.0000

           TOTAL OUT =       11567.9824             TOTAL OUT =        1097.0879

            IN - OUT =           0.0000              IN - OUT =           0.0000

 PERCENT DISCREPANCY =           0.00     PERCENT DISCREPANCY =           0.00






          TIME SUMMARY AT END OF TIME STEP  10 IN STRESS PERIOD    2
                    SECONDS     MINUTES      HOURS       DAYS        YEARS
                    -----------------------------------------------------------
   TIME STEP LENGTH  86400.      1440.0      24.000      1.0000     2.73785E-03
 STRESS PERIOD TIME 8.64000E+05  14400.      240.00      10.000     2.73785E-02
         TOTAL TIME 9.50400E+05  15840.      264.00      11.000     3.01164E-02
1
 
 SOLVING FOR HEAD 

 OUTPUT CONTROL FOR STRESS PERIOD    2   TIME STEP  11
    SAVE HEAD FOR ALL LAYERS
    SAVE DRAWDOWN FOR ALL LAYERS
    SAVE BUDGET
    PRINT HEAD FOR ALL LAYERS
    PRINT BUDGET
 UBDSV1 SAVING "         STORAGE" ON UNIT  53 AT TIME STEP 11, STRESS PERIOD   2
 UBDSV2 SAVING "   CONSTANT HEAD" ON UNIT  53 AT TIME STEP 11, STRESS PERIOD   2
 UBDSV1 SAVING "FLOW RIGHT FACE " ON UNIT  53 AT TIME STEP 11, STRESS PERIOD   2
 UBDSV1 SAVING "FLOW FRONT FACE " ON UNIT  53 AT TIME STEP 11, STRESS PERIOD   2
1
              HEAD IN LAYER   1 AT END OF TIME STEP  11 IN STRESS PERIOD    2
  ---------------------------------------------------------------------------

            1           2           3           4           5           6           7           8           9          10
           11          12          13          14          15          16          17          18          19          20
           21          22          23          24          25          26          27          28          29          30
           31          32          33          34          35          36          37          38          39          40
           41          42          43          44          45          46          47          48          49          50
 ........................................................................................................................
   1    10.00       9.960       9.902       9.836       9.772       9.700       9.631       9.563       9.478       9.394    
        9.329       9.266       9.201       9.137       9.034       8.911       8.773       8.664       8.608       8.542    
        8.463       8.399       8.335       8.260       8.161       7.963       7.740       7.584       7.430       7.285    
        7.096       6.795       6.409       5.982       5.540       5.070       4.605       4.218       3.713       3.165    
        2.715       2.285       1.807       1.408       1.161      0.9524      0.7868      0.6669      0.4476       0.000    
   2    10.00       9.959       9.906       9.840       9.775       9.711       9.643       9.554       9.461       9.392    
        9.336       9.282       9.227       9.148       9.031       8.901       8.772       8.664       8.606       8.533    
        8.453       8.405       8.354       8.276       8.150       7.958       7.755       7.594       7.438       7.296    
        7.086       6.770       6.366       5.880       5.408       4.954       4.551       4.178       3.664       3.134    
        2.682       2.198       1.763       1.449       1.217       1.037      0.8317      0.6492      0.3621       0.000    
   3    10.00       9.953       9.901       9.842       9.785       9.720       9.633       9.539       9.473       9.411    
        9.349       9.299       9.251       9.175       9.055       8.896       8.754       8.668       8.599       8.525    
        8.460       8.410       8.357       8.255       8.119       7.948       7.772       7.645       7.464       7.278    
        7.014       6.640       6.182       5.712       5.292       4.867       4.472       4.072       3.540       3.049    
        2.661       2.213       1.814       1.526       1.295       1.109      0.8654      0.5802      0.2630       0.000    
   4    10.00       9.953       9.902       9.845       9.781       9.705       9.616       9.544       9.487       9.424    
        9.369       9.327       9.273       9.188       9.071       8.902       8.755       8.673       8.597       8.530    
        8.461       8.400       8.334       8.227       8.093       7.941       7.782       7.626       7.466       7.256    
        6.925       6.434       5.949       5.592       5.239       4.799       4.324       3.855       3.430       3.057    
        2.693       2.277       1.900       1.639       1.379       1.142      0.8410      0.5220      0.2500       0.000    
   5    10.00       9.950       9.899       9.834       9.769       9.699       9.619       9.557       9.498       9.439    
        9.391       9.350       9.280       9.180       9.052       8.898       8.774       8.685       8.610       8.521    
        8.439       8.373       8.293       8.189       8.069       7.914       7.756       7.612       7.450       7.198    
        6.728       6.183       5.794       5.513       5.163       4.684       4.194       3.767       3.446       3.108    
        2.749       2.365       1.989       1.746       1.467       1.125      0.7657      0.4656      0.2341       0.000    
   6    10.00       9.943       9.882       9.829       9.769       9.693       9.625       9.572       9.510       9.454    
        9.409       9.360       9.272       9.160       9.048       8.920       8.794       8.692       8.595       8.493    
        8.412       8.335       8.266       8.171       8.019       7.868       7.740       7.594       7.370       6.993    
        6.479       5.988       5.664       5.418       5.101       4.627       4.135       3.770       3.499       3.191    
        2.860       2.520       2.135       1.808       1.438       1.061      0.6765      0.4019      0.2213       0.000    
   7    10.00       9.932       9.873       9.823       9.762       9.698       9.638       9.587       9.530       9.475    
        9.420       9.346       9.250       9.145       9.040       8.939       8.809       8.672       8.561       8.461    
        8.376       8.303       8.242       8.127       7.972       7.842       7.713       7.522       7.174       6.697    
        6.204       5.804       5.579       5.357       4.988       4.546       4.212       3.854       3.554       3.350    
        3.033       2.667       2.214       1.748       1.334      0.9218      0.5831      0.4050      0.2085       0.000    
   8    10.00       9.931       9.878       9.822       9.760       9.704       9.651       9.600       9.548       9.495    
        9.423       9.329       9.235       9.136       9.038       8.927       8.766       8.623       8.533       8.437    
        8.343       8.279       8.193       8.073       7.939       7.803       7.591       7.299       6.871       6.452    
        6.076       5.756       5.545       5.290       4.898       4.528       4.226       3.960       3.722       3.484    
        3.174       2.713       2.156       1.659       1.228      0.8635      0.6175      0.3969      0.1902       0.000    
   9    10.00       9.942       9.877       9.816       9.770       9.724       9.671       9.617       9.559       9.503    
        9.420       9.315       9.212       9.114       9.011       8.880       8.727       8.596       8.498       8.402    
        8.318       8.237       8.123       8.011       7.890       7.729       7.431       7.040       6.642       6.334    
        6.020       5.745       5.510       5.189       4.822       4.508       4.275       4.073       3.859       3.597    
        3.224       2.720       2.152       1.658       1.238      0.8830      0.6233      0.4005      0.2048       0.000    
  10    10.00       9.940       9.872       9.821       9.779       9.734       9.686       9.640       9.574       9.492    
        9.392       9.283       9.186       9.094       8.990       8.831       8.671       8.558       8.468       8.377    
        8.298       8.191       8.065       7.942       7.805       7.584       7.215       6.807       6.458       6.209    
        6.000       5.757       5.476       5.146       4.795       4.523       4.338       4.161       3.928       3.627    
        3.201       2.678       2.158       1.736       1.341      0.9723      0.6430      0.4254      0.2286       0.000    
  11    10.00       9.927       9.872       9.831       9.789       9.751       9.707       9.643       9.553       9.462    
        9.363       9.257       9.168       9.060       8.920       8.770       8.639       8.538       8.456       8.364    
        8.252       8.119       7.958       7.818       7.604       7.303       6.985       6.672       6.367       6.169    
        6.004       5.705       5.391       5.115       4.838       4.617       4.420       4.193       3.905       3.543    
        3.142       2.737       2.236       1.819       1.443       1.076      0.7227      0.4178      0.1752       0.000    
  12    10.00       9.930       9.879       9.835       9.800       9.760       9.710       9.622       9.518       9.432    
        9.341       9.231       9.124       8.998       8.876       8.740       8.614       8.527       8.439       8.318    
        8.144       7.954       7.769       7.580       7.303       7.071       6.871       6.569       6.304       6.134    
        5.942       5.675       5.400       5.137       4.925       4.712       4.458       4.181       3.831       3.467    
        3.126       2.759       2.275       1.864       1.509       1.125      0.7607      0.3943      0.1308       0.000    
  13    10.00       9.943       9.895       9.849       9.807       9.760       9.682       9.581       9.484       9.397    
        9.296       9.190       9.082       8.952       8.820       8.693       8.602       8.499       8.387       8.171    
        7.919       7.721       7.517       7.273       7.055       6.928       6.709       6.442       6.279       6.116    
        5.880       5.633       5.411       5.197       5.007       4.808       4.502       4.124       3.785       3.439    
        3.112       2.731       2.212       1.830       1.525       1.116      0.6997      0.3407      0.1043       0.000    
  14    10.00       9.956       9.915       9.866       9.809       9.732       9.631       9.531       9.445       9.350    
        9.248       9.150       9.029       8.897       8.783       8.673       8.544       8.419       8.214       7.903    
        7.663       7.470       7.207       7.008       6.893       6.773       6.559       6.380       6.230       6.063    
        5.849       5.646       5.474       5.273       5.061       4.855       4.511       4.097       3.745       3.389    
        3.052       2.579       2.085       1.784       1.438       1.071      0.7017      0.3159      8.9963E-02   0.000    
  15    10.00       9.965       9.922       9.868       9.800       9.690       9.568       9.481       9.401       9.308    
        9.229       9.131       8.979       8.832       8.729       8.573       8.417       8.286       7.988       7.651    
        7.431       7.180       6.949       6.860       6.784       6.647       6.461       6.291       6.166       6.027    
        5.843       5.683       5.529       5.345       5.129       4.875       4.475       4.018       3.647       3.321    
        2.960       2.482       2.092       1.715       1.304      0.9803      0.6277      0.2900      9.8102E-02   0.000    
  16    10.00       9.971       9.925       9.859       9.760       9.629       9.521       9.452       9.382       9.290    
        9.196       9.057       8.876       8.737       8.597       8.424       8.319       8.075       7.662       7.364    
        7.162       6.938       6.840       6.777       6.662       6.493       6.344       6.242       6.151       6.021    
        5.857       5.705       5.573       5.388       5.127       4.792       4.340       3.946       3.649       3.299    
        2.880       2.410       1.990       1.582       1.228      0.8691      0.5637      0.2932      0.1046       0.000    
  17    10.00       9.967       9.912       9.824       9.712       9.578       9.483       9.424       9.342       9.247    
        9.086       8.897       8.750       8.614       8.441       8.273       8.068       7.689       7.336       7.140    
        6.973       6.838       6.766       6.650       6.480       6.355       6.297       6.239       6.145       6.004    
        5.855       5.715       5.574       5.396       5.039       4.605       4.255       3.990       3.698       3.276    
        2.745       2.284       1.895       1.512       1.102      0.7256      0.4809      0.2665      0.1110       0.000    
  18    10.00       9.954       9.884       9.782       9.636       9.524       9.458       9.371       9.275       9.137    
        8.938       8.785       8.650       8.452       8.234       8.009       7.726       7.390       7.165       7.006    
        6.874       6.754       6.643       6.491       6.365       6.314       6.281       6.232       6.132       5.994    
        5.857       5.712       5.533       5.264       4.904       4.547       4.263       4.043       3.677       3.162    
        2.650       2.168       1.776       1.417       1.024      0.6698      0.4068      0.2228      0.1040       0.000    
  19    10.00       9.938       9.858       9.711       9.567       9.502       9.420       9.309       9.194       9.040    
        8.867       8.719       8.510       8.235       8.010       7.789       7.482       7.198       7.048       6.943    
        6.803       6.655       6.532       6.399       6.323       6.289       6.253       6.193       6.095       5.976    
        5.846       5.684       5.448       5.163       4.857       4.548       4.298       4.017       3.504       2.999    
        2.594       2.102       1.677       1.327      0.9408      0.6039      0.3662      0.2116      0.1059       0.000    
  20    10.00       9.920       9.797       9.645       9.540       9.467       9.377       9.260       9.125       8.984    
        8.806       8.590       8.313       8.063       7.864       7.598       7.313       7.163       7.035       6.892    
        6.744       6.590       6.440       6.337       6.284       6.240       6.183       6.124       6.036       5.931    
        5.806       5.642       5.399       5.129       4.843       4.570       4.302       3.870       3.332       2.903    
        2.457       1.981       1.605       1.255      0.8948      0.5427      0.3180      0.2134      0.1078       0.000    
  21    10.00       9.874       9.748       9.625       9.515       9.434       9.336       9.189       9.054       8.919    
        8.691       8.424       8.167       7.962       7.748       7.492       7.285       7.154       7.009       6.854    
        6.674       6.501       6.368       6.265       6.186       6.119       6.075       6.024       5.939       5.855    
        5.748       5.579       5.356       5.108       4.841       4.571       4.193       3.755       3.284       2.774    
        2.326       1.880       1.555       1.234      0.7771      0.4578      0.3257      0.2375      0.1141       0.000    
  22    10.00       9.856       9.708       9.589       9.497       9.400       9.259       9.115       8.996       8.820    
        8.584       8.307       8.086       7.916       7.681       7.443       7.268       7.133       6.989       6.804    
        6.597       6.423       6.255       6.102       6.000       5.953       5.922       5.866       5.821       5.763    
        5.664       5.512       5.329       5.087       4.823       4.557       4.157       3.709       3.156       2.653    
        2.266       1.862       1.502       1.026      0.6382      0.4583      0.3443      0.2288      9.0788E-02   0.000    
  23    10.00       9.825       9.682       9.583       9.483       9.340       9.184       9.072       8.924       8.743    
        8.504       8.258       8.086       7.871       7.617       7.409       7.260       7.137       6.976       6.755    
        6.535       6.331       6.111       5.846       5.609       5.572       5.645       5.673       5.691       5.666    
        5.592       5.457       5.281       5.076       4.814       4.526       4.146       3.585       3.004       2.590    
        2.220       1.761       1.246      0.8356      0.6213      0.4696      0.3432      0.2175      0.1012       0.000    
  24    10.00       9.802       9.699       9.586       9.446       9.291       9.168       9.047       8.902       8.694    
        8.474       8.282       8.091       7.831       7.561       7.396       7.274       7.147       6.955       6.732    
        6.515       6.282       5.946       5.338       4.414       4.757       5.192       5.447       5.556       5.569    
        5.516       5.399       5.246       5.030       4.776       4.483       4.009       3.419       2.924       2.486    
        2.037       1.555       1.101      0.7951      0.6169      0.4660      0.3347      0.2535      0.1395       0.000    
  25    10.00       9.828       9.719       9.584       9.438       9.299       9.172       9.057       8.879       8.672    
        8.486       8.300       8.067       7.779       7.570       7.420       7.287       7.138       6.960       6.756    
        6.524       6.293       5.688       4.378       1.347       3.857       4.798       5.245       5.445       5.495    
        5.455       5.361       5.198       4.944       4.678       4.331       3.850       3.284       2.834       2.360    
        1.844       1.391       1.022      0.7850      0.6408      0.5005      0.3655      0.2693      0.1757       0.000    
  26    10.00       9.853       9.751       9.605       9.454       9.332       9.201       9.055       8.872       8.709    
        8.547       8.297       8.001       7.756       7.604       7.472       7.315       7.123       6.934       6.760    
        6.583       6.337       5.793       4.864       3.871       4.402       4.952       5.267       5.428       5.462    
        5.403       5.307       5.120       4.872       4.616       4.241       3.618       3.103       2.729       2.155    
        1.598       1.225       1.009      0.8507      0.6976      0.5423      0.4018      0.2942      0.1756       0.000    
  27    10.00       9.886       9.762       9.638       9.503       9.361       9.230       9.088       8.922       8.764    
        8.544       8.246       7.989       7.790       7.657       7.508       7.301       7.092       6.939       6.804    
        6.660       6.414       6.017       5.525       5.005       5.051       5.244       5.397       5.473       5.447    
        5.367       5.260       5.081       4.832       4.495       3.928       3.356       2.962       2.398       1.843    
        1.449       1.207       1.051      0.9166      0.7753      0.5963      0.4291      0.3211      0.2158       0.000    
  28    10.00       9.897       9.792       9.674       9.551       9.416       9.280       9.135       8.977       8.791    
        8.517       8.244       8.019       7.828       7.691       7.537       7.361       7.161       6.967       6.835    
        6.710       6.539       6.285       5.940       5.631       5.493       5.502       5.552       5.531       5.457    
        5.339       5.211       5.006       4.678       4.208       3.640       3.172       2.648       2.101       1.738    
        1.454       1.256       1.101      0.9678      0.8226      0.6513      0.4858      0.3649      0.2224       0.000    
  29    10.00       9.902       9.803       9.714       9.596       9.472       9.340       9.193       9.023       8.771    
        8.500       8.258       8.041       7.882       7.720       7.554       7.394       7.235       7.055       6.893    
        6.762       6.621       6.452       6.249       5.975       5.817       5.745       5.690       5.610       5.449    
        5.284       5.076       4.842       4.418       3.895       3.413       2.948       2.432       2.022       1.762    
        1.531       1.313       1.144       1.014      0.8726      0.6969      0.5266      0.3853      0.2246       0.000    
  30    10.00       9.910       9.828       9.750       9.647       9.532       9.413       9.248       9.033       8.774    
        8.492       8.242       8.060       7.899       7.736       7.577       7.442       7.310       7.151       6.979    
        6.829       6.700       6.557       6.409       6.222       6.039       5.942       5.809       5.650       5.422    
        5.159       4.854       4.563       4.150       3.754       3.315       2.845       2.379       2.083       1.847    
        1.586       1.372       1.209       1.054      0.8947      0.7393      0.5607      0.4013      0.2424       0.000    
  31    10.00       9.925       9.854       9.781       9.705       9.614       9.482       9.284       9.032       8.761    
        8.486       8.253       8.076       7.909       7.763       7.614       7.477       7.375       7.217       7.053    
        6.910       6.774       6.644       6.486       6.334       6.190       6.052       5.887       5.642       5.337    
        4.970       4.634       4.358       4.062       3.682       3.237       2.796       2.418       2.182       1.969    
        1.698       1.452       1.262       1.098      0.9398      0.7752      0.5964      0.4284      0.2357       0.000    
  32    10.00       9.937       9.882       9.818       9.744       9.660       9.528       9.300       9.060       8.811    
        8.517       8.272       8.093       7.933       7.782       7.653       7.533       7.403       7.271       7.117    
        6.958       6.811       6.662       6.495       6.369       6.273       6.119       5.877       5.535       5.160    
        4.816       4.531       4.272       4.004       3.649       3.255       2.887       2.560       2.307       2.066    
        1.814       1.557       1.354       1.163      0.9820      0.8334      0.6504      0.4284      0.2127       0.000    
  33    10.00       9.945       9.900       9.848       9.776       9.680       9.509       9.287       9.086       8.851    
        8.560       8.313       8.125       7.945       7.798       7.691       7.582       7.450       7.305       7.147    
        6.983       6.818       6.636       6.489       6.394       6.296       6.060       5.729       5.393       5.075    
        4.769       4.530       4.285       3.964       3.637       3.286       2.974       2.710       2.445       2.182    
        1.947       1.703       1.481       1.280       1.080      0.9037      0.6982      0.4367      0.2057       0.000    
  34    10.00       9.950       9.920       9.874       9.784       9.649       9.483       9.319       9.110       8.852    
        8.591       8.345       8.137       7.952       7.825       7.740       7.621       7.480       7.310       7.153    
        6.990       6.790       6.616       6.487       6.383       6.216       5.932       5.654       5.338       5.000    
        4.750       4.559       4.330       4.019       3.694       3.378       3.092       2.855       2.586       2.322    
        2.098       1.874       1.639       1.434       1.221       1.014      0.7532      0.4837      0.2550       0.000    
  35    10.00       9.959       9.924       9.865       9.751       9.608       9.486       9.345       9.149       8.867    
        8.585       8.351       8.137       7.980       7.876       7.778       7.643       7.477       7.303       7.125    
        6.934       6.744       6.566       6.441       6.324       6.164       5.891       5.574       5.244       4.937    
        4.760       4.571       4.333       4.097       3.825       3.495       3.211       3.020       2.749       2.456    
        2.246       2.023       1.799       1.598       1.361       1.130      0.8675      0.5789      0.2893       0.000    
  36    10.00       9.956       9.906       9.839       9.725       9.588       9.478       9.343       9.145       8.877    
        8.578       8.320       8.160       8.040       7.937       7.806       7.636       7.465       7.265       7.012    
        6.812       6.654       6.505       6.394       6.287       6.097       5.800       5.485       5.157       4.901    
        4.741       4.580       4.367       4.149       3.918       3.620       3.339       3.132       2.895       2.581    
        2.346       2.120       1.892       1.726       1.498       1.242      0.9802      0.6789      0.3453       0.000    
  37    10.00       9.941       9.885       9.812       9.696       9.571       9.445       9.314       9.130       8.838    
        8.533       8.322       8.225       8.106       7.964       7.824       7.615       7.397       7.125       6.862    
        6.730       6.606       6.462       6.340       6.208       5.973       5.706       5.372       5.098       4.922    
        4.769       4.598       4.382       4.193       3.955       3.671       3.451       3.251       2.989       2.676    
        2.395       2.175       1.994       1.809       1.592       1.355       1.104      0.7661      0.4150       0.000    
  38    10.00       9.934       9.861       9.782       9.675       9.551       9.410       9.272       9.074       8.802    
        8.568       8.400       8.273       8.159       7.989       7.758       7.509       7.223       6.925       6.771    
        6.670       6.509       6.359       6.259       6.103       5.872       5.554       5.267       5.119       4.981    
        4.811       4.620       4.417       4.227       3.993       3.736       3.540       3.336       3.024       2.698    
        2.454       2.251       2.067       1.882       1.689       1.461       1.201      0.8765      0.4547       0.000    
  39    10.00       9.916       9.841       9.762       9.656       9.516       9.364       9.217       9.035       8.815    
        8.630       8.502       8.356       8.182       7.910       7.598       7.281       6.972       6.800       6.712    
        6.556       6.378       6.271       6.176       6.024       5.759       5.462       5.290       5.164       5.017    
        4.833       4.654       4.450       4.248       4.051       3.840       3.614       3.377       3.057       2.736    
        2.480       2.276       2.133       1.986       1.777       1.543       1.282      0.9286      0.4547       0.000    
  40    10.00       9.901       9.828       9.748       9.640       9.493       9.335       9.186       9.031       8.847    
        8.692       8.579       8.382       8.085       7.729       7.377       7.060       6.858       6.752       6.629    
        6.453       6.304       6.212       6.087       5.912       5.697       5.512       5.345       5.196       5.057    
        4.887       4.689       4.483       4.294       4.114       3.900       3.657       3.420       3.072       2.722    
        2.491       2.322       2.173       2.047       1.835       1.575       1.335      0.9648      0.4763       0.000    
  41    10.00       9.908       9.822       9.733       9.612       9.478       9.339       9.205       9.056       8.889    
        8.741       8.594       8.312       7.927       7.534       7.218       6.975       6.808       6.696       6.551    
        6.371       6.245       6.136       6.002       5.854       5.706       5.573       5.413       5.234       5.075    
        4.922       4.735       4.527       4.356       4.169       3.960       3.712       3.382       2.997       2.728    
        2.541       2.365       2.228       2.069       1.846       1.588       1.376       1.024      0.5243       0.000    
  42    10.00       9.910       9.814       9.731       9.626       9.501       9.362       9.211       9.076       8.946    
        8.761       8.487       8.130       7.731       7.380       7.140       6.931       6.775       6.640       6.466    
        6.301       6.183       6.069       5.977       5.856       5.750       5.627       5.441       5.251       5.109    
        4.977       4.774       4.552       4.392       4.232       3.998       3.679       3.284       2.943       2.738    
        2.589       2.440       2.271       2.064       1.832       1.625       1.411       1.066      0.5485       0.000    
  43    10.00       9.911       9.822       9.737       9.653       9.541       9.401       9.251       9.102       8.910    
        8.635       8.317       7.953       7.571       7.303       7.103       6.905       6.739       6.575       6.401    
        6.249       6.138       6.057       5.987       5.882       5.768       5.647       5.465       5.296       5.181    
        5.013       4.791       4.583       4.425       4.241       3.955       3.581       3.200       2.963       2.802    
        2.644       2.483       2.276       2.053       1.842       1.641       1.449       1.063      0.4788       0.000    
  44    10.00       9.905       9.824       9.750       9.657       9.570       9.451       9.266       9.061       8.790    
        8.510       8.176       7.779       7.503       7.297       7.075       6.859       6.667       6.488       6.334    
        6.226       6.140       6.066       5.994       5.903       5.787       5.644       5.502       5.371       5.227    
        5.065       4.864       4.630       4.407       4.191       3.899       3.509       3.181       2.991       2.835    
        2.684       2.506       2.299       2.100       1.879       1.656       1.405      0.9101      0.4022       0.000    
  45    10.00       9.905       9.838       9.753       9.665       9.587       9.410       9.197       8.953       8.686    
        8.452       8.051       7.683       7.478       7.265       7.022       6.776       6.579       6.423       6.314    
        6.238       6.163       6.086       5.999       5.902       5.795       5.676       5.556       5.449       5.301    
        5.107       4.893       4.655       4.386       4.141       3.824       3.458       3.200       3.044       2.887    
        2.691       2.486       2.304       2.124       1.931       1.692       1.267      0.7628      0.3863       0.000    
  46    10.00       9.922       9.850       9.759       9.662       9.513       9.326       9.149       8.926       8.665    
        8.326       7.958       7.663       7.406       7.189       6.948       6.702       6.549       6.433       6.333    
        6.263       6.194       6.101       5.998       5.902       5.808       5.711       5.604       5.497       5.360    
        5.180       4.956       4.692       4.388       4.047       3.707       3.441       3.265       3.092       2.912    
        2.686       2.472       2.291       2.147       1.939       1.605       1.136      0.7184      0.3650       0.000    
  47    10.00       9.939       9.872       9.777       9.608       9.429       9.268       9.116       8.916       8.590    
        8.225       7.883       7.599       7.383       7.151       6.884       6.672       6.536       6.444       6.362    
        6.287       6.206       6.114       6.012       5.918       5.837       5.751       5.646       5.522       5.387    
        5.227       5.028       4.687       4.284       3.964       3.714       3.483       3.332       3.173       2.923    
        2.654       2.429       2.261       2.143       1.883       1.485       1.054      0.6912      0.3548       0.000    
  48    10.00       9.946       9.875       9.733       9.562       9.413       9.242       9.088       8.875       8.530    
        8.133       7.823       7.593       7.336       7.065       6.826       6.667       6.535       6.446       6.385    
        6.310       6.212       6.111       6.023       5.947       5.879       5.797       5.680       5.534       5.376    
        5.211       4.982       4.630       4.300       4.020       3.772       3.556       3.385       3.180       2.880    
        2.596       2.415       2.275       2.055       1.707       1.351       1.006      0.6961      0.3745       0.000    
  49    10.00       9.943       9.842       9.714       9.574       9.401       9.229       9.056       8.792       8.427    
        8.085       7.795       7.517       7.274       7.065       6.840       6.635       6.515       6.457       6.398    
        6.327       6.216       6.105       6.032       5.970       5.916       5.824       5.682       5.516       5.365    
        5.192       4.913       4.615       4.394       4.138       3.847       3.585       3.379       3.142       2.823    
        2.593       2.435       2.226       1.894       1.585       1.294      0.9949      0.6960      0.3732       0.000    
  50    10.00       9.935       9.830       9.700       9.573       9.411       9.218       9.003       8.724       8.436    
        8.078       7.716       7.458       7.264       7.088       6.834       6.607       6.517       6.465       6.406    
        6.335       6.221       6.107       6.036       5.983       5.933       5.829       5.666       5.498       5.355    
        5.177       4.890       4.660       4.461       4.193       3.904       3.630       3.347       3.024       2.757    
        2.638       2.459       2.136       1.803       1.574       1.292       1.009      0.6816      0.3039       0.000    

 HEAD WILL BE SAVED ON UNIT   51 AT END OF TIME STEP  11, STRESS PERIOD    2

 DRAWDOWN WILL BE SAVED ON UNIT   52 AT END OF TIME STEP  11, STRESS PERIOD    2
1
  VOLUMETRIC BUDGET FOR ENTIRE MODEL AT END OF TIME STEP 11 IN STRESS PERIOD   2
  ------------------------------------------------------------------------------

     CUMULATIVE VOLUMES      L**3       RATES FOR THIS TIME STEP      L**3/T
     ------------------                 ------------------------

           IN:                                      IN:
           ---                                      ---
             STORAGE =        5499.8003               STORAGE =         499.9088
       CONSTANT HEAD =        7165.2690         CONSTANT HEAD =         597.1782
               WELLS =           0.0000                 WELLS =           0.0000

            TOTAL IN =       12665.0693              TOTAL IN =        1097.0869

          OUT:                                     OUT:
          ----                                     ----
             STORAGE =       9.4170E-03               STORAGE =       1.2737E-05
       CONSTANT HEAD =        7165.0605         CONSTANT HEAD =         597.0872
               WELLS =        5500.0000                 WELLS =         500.0000

           TOTAL OUT =       12665.0703             TOTAL OUT =        1097.0873

            IN - OUT =      -9.7656E-04              IN - OUT =      -3.6621E-04

 PERCENT DISCREPANCY =           0.00     PERCENT DISCREPANCY =           0.00






          TIME SUMMARY AT END OF TIME STEP  11 IN STRESS PERIOD    2
                    SECONDS     MINUTES      HOURS       DAYS        YEARS
                    -----------------------------------------------------------
   TIME STEP LENGTH  86400.      1440.0      24.000      1.0000     2.73785E-03
 STRESS PERIOD TIME 9.50400E+05  15840.      264.00      11.000     3.01164E-02
         TOTAL TIME 1.03680E+06  17280.      288.00      12.000     3.28542E-02
1
 
 SOLVING FOR HEAD 

 OUTPUT CONTROL FOR STRESS PERIOD    2   TIME STEP  12
    SAVE HEAD FOR ALL LAYERS
    SAVE DRAWDOWN FOR ALL LAYERS
    SAVE BUDGET
    PRINT HEAD FOR ALL LAYERS
    PRINT BUDGET
 UBDSV1 SAVING "         STORAGE" ON UNIT  53 AT TIME STEP 12, STRESS PERIOD   2
 UBDSV2 SAVING "   CONSTANT HEAD" ON UNIT  53 AT TIME STEP 12, STRESS PERIOD   2
 UBDSV1 SAVING "FLOW RIGHT FACE " ON UNIT  53 AT TIME STEP 12, STRESS PERIOD   2
 UBDSV1 SAVING "FLOW FRONT FACE " ON UNIT  53 AT TIME STEP 12, STRESS PERIOD   2
1
              HEAD IN LAYER   1 AT END OF TIME STEP  12 IN STRESS PERIOD    2
  ---------------------------------------------------------------------------

            1           2           3           4           5           6           7           8           9          10
           11          12          13          14          15          16          17          18          19          20
           21          22          23          24          25          26          27          28          29          30
           31          32          33          34          35          36          37          38          39          40
           41          42          43          44          45          46          47          48          49          50
 ........................................................................................................................
   1    10.00       9.959       9.902       9.836       9.772       9.699       9.631       9.563       9.478       9.394    
        9.329       9.266       9.201       9.137       9.034       8.911       8.773       8.664       8.608       8.541    
        8.462       8.398       8.335       8.260       8.160       7.963       7.740       7.583       7.430       7.285    
        7.096       6.794       6.409       5.982       5.540       5.069       4.605       4.218       3.713       3.165    
        2.715       2.285       1.807       1.408       1.161      0.9524      0.7868      0.6669      0.4476       0.000    
   2    10.00       9.959       9.906       9.840       9.775       9.711       9.643       9.554       9.461       9.392    
        9.336       9.282       9.227       9.148       9.031       8.901       8.772       8.664       8.606       8.532    
        8.453       8.405       8.354       8.276       8.150       7.957       7.755       7.593       7.437       7.296    
        7.086       6.770       6.366       5.880       5.408       4.954       4.551       4.177       3.664       3.134    
        2.682       2.198       1.763       1.449       1.217       1.037      0.8317      0.6492      0.3621       0.000    
   3    10.00       9.953       9.901       9.842       9.785       9.720       9.633       9.539       9.473       9.411    
        9.349       9.299       9.251       9.175       9.055       8.895       8.754       8.667       8.599       8.524    
        8.460       8.410       8.357       8.254       8.118       7.947       7.772       7.644       7.463       7.278    
        7.014       6.640       6.182       5.712       5.292       4.867       4.472       4.072       3.540       3.049    
        2.661       2.213       1.814       1.526       1.295       1.109      0.8654      0.5802      0.2630       0.000    
   4    10.00       9.953       9.902       9.845       9.781       9.705       9.616       9.544       9.487       9.423    
        9.369       9.327       9.273       9.188       9.071       8.902       8.755       8.673       8.597       8.530    
        8.461       8.399       8.333       8.227       8.092       7.940       7.781       7.625       7.466       7.255    
        6.924       6.434       5.949       5.592       5.239       4.799       4.324       3.855       3.430       3.057    
        2.693       2.277       1.900       1.639       1.379       1.142      0.8410      0.5220      0.2500       0.000    
   5    10.00       9.950       9.898       9.834       9.769       9.699       9.619       9.556       9.498       9.439    
        9.391       9.350       9.280       9.180       9.052       8.898       8.773       8.684       8.610       8.521    
        8.439       8.373       8.293       8.188       8.068       7.913       7.756       7.612       7.450       7.198    
        6.727       6.183       5.794       5.513       5.163       4.684       4.194       3.767       3.446       3.108    
        2.749       2.365       1.989       1.746       1.467       1.125      0.7657      0.4656      0.2341       0.000    
   6    10.00       9.943       9.882       9.828       9.769       9.693       9.625       9.572       9.510       9.454    
        9.409       9.360       9.272       9.160       9.048       8.919       8.794       8.692       8.594       8.493    
        8.411       8.335       8.265       8.171       8.018       7.867       7.739       7.593       7.370       6.992    
        6.479       5.988       5.664       5.418       5.101       4.626       4.135       3.770       3.499       3.191    
        2.860       2.520       2.135       1.808       1.438       1.061      0.6765      0.4019      0.2212       0.000    
   7    10.00       9.932       9.873       9.823       9.762       9.698       9.638       9.587       9.530       9.475    
        9.420       9.346       9.250       9.145       9.039       8.939       8.809       8.672       8.560       8.460    
        8.375       8.302       8.241       8.126       7.971       7.842       7.712       7.521       7.173       6.696    
        6.203       5.803       5.579       5.357       4.988       4.545       4.211       3.854       3.553       3.350    
        3.033       2.667       2.214       1.748       1.334      0.9218      0.5831      0.4050      0.2085       0.000    
   8    10.00       9.931       9.878       9.822       9.760       9.704       9.651       9.600       9.548       9.495    
        9.423       9.329       9.235       9.135       9.038       8.926       8.766       8.623       8.532       8.436    
        8.342       8.278       8.192       8.072       7.938       7.802       7.590       7.297       6.869       6.450    
        6.074       5.755       5.544       5.289       4.897       4.527       4.225       3.959       3.721       3.484    
        3.174       2.713       2.156       1.659       1.228      0.8635      0.6175      0.3969      0.1902       0.000    
   9    10.00       9.942       9.877       9.816       9.770       9.723       9.670       9.617       9.559       9.503    
        9.420       9.314       9.212       9.114       9.011       8.880       8.726       8.595       8.497       8.401    
        8.317       8.236       8.121       8.009       7.888       7.727       7.429       7.038       6.639       6.331    
        6.018       5.743       5.509       5.187       4.821       4.507       4.275       4.073       3.858       3.597    
        3.224       2.720       2.152       1.658       1.238      0.8830      0.6233      0.4005      0.2048       0.000    
  10    10.00       9.940       9.872       9.821       9.779       9.734       9.686       9.640       9.574       9.492    
        9.392       9.283       9.186       9.094       8.989       8.831       8.670       8.557       8.466       8.375    
        8.296       8.189       8.063       7.939       7.802       7.580       7.211       6.803       6.454       6.205    
        5.996       5.754       5.474       5.144       4.794       4.522       4.337       4.160       3.927       3.627    
        3.201       2.678       2.158       1.736       1.341      0.9723      0.6430      0.4254      0.2286       0.000    
  11    10.00       9.927       9.872       9.831       9.789       9.751       9.707       9.643       9.553       9.462    
        9.363       9.256       9.168       9.059       8.919       8.769       8.637       8.537       8.454       8.362    
        8.250       8.117       7.954       7.814       7.599       7.297       6.979       6.666       6.362       6.164    
        5.999       5.702       5.388       5.113       4.836       4.615       4.419       4.192       3.904       3.543    
        3.142       2.737       2.236       1.819       1.443       1.076      0.7227      0.4178      0.1752       0.000    
  12    10.00       9.930       9.879       9.835       9.800       9.760       9.710       9.621       9.518       9.432    
        9.340       9.231       9.124       8.997       8.875       8.739       8.613       8.525       8.437       8.316    
        8.141       7.950       7.763       7.573       7.294       7.062       6.862       6.561       6.296       6.128    
        5.936       5.669       5.396       5.134       4.922       4.710       4.457       4.180       3.831       3.466    
        3.126       2.759       2.274       1.864       1.509       1.125      0.7607      0.3943      0.1308       0.000    
  13    10.00       9.943       9.895       9.849       9.807       9.760       9.682       9.581       9.484       9.397    
        9.295       9.190       9.081       8.952       8.819       8.692       8.600       8.497       8.385       8.166    
        7.912       7.713       7.507       7.261       7.042       6.915       6.696       6.429       6.268       6.106    
        5.872       5.626       5.405       5.192       5.003       4.805       4.500       4.123       3.784       3.439    
        3.112       2.731       2.212       1.830       1.525       1.116      0.6997      0.3407      0.1043       0.000    
  14    10.00       9.956       9.915       9.866       9.809       9.732       9.631       9.531       9.445       9.350    
        9.247       9.150       9.029       8.896       8.781       8.671       8.542       8.416       8.209       7.895    
        7.653       7.457       7.191       6.991       6.875       6.756       6.542       6.364       6.215       6.050    
        5.837       5.637       5.467       5.267       5.057       4.852       4.509       4.096       3.744       3.388    
        3.052       2.579       2.085       1.784       1.438       1.071      0.7017      0.3159      8.9963E-02   0.000    
  15    10.00       9.965       9.922       9.868       9.800       9.689       9.568       9.480       9.401       9.308    
        9.229       9.130       8.978       8.831       8.728       8.571       8.413       8.282       7.980       7.638    
        7.416       7.162       6.928       6.839       6.763       6.626       6.441       6.272       6.148       6.010    
        5.830       5.672       5.519       5.338       5.124       4.871       4.473       4.017       3.647       3.320    
        2.960       2.482       2.091       1.715       1.304      0.9802      0.6277      0.2900      9.8102E-02   0.000    
  16    10.00       9.971       9.925       9.859       9.760       9.629       9.521       9.452       9.382       9.290    
        9.196       9.056       8.874       8.735       8.595       8.420       8.314       8.067       7.648       7.345    
        7.141       6.914       6.815       6.753       6.638       6.468       6.319       6.218       6.130       6.002    
        5.842       5.692       5.562       5.380       5.121       4.788       4.338       3.945       3.648       3.299    
        2.880       2.410       1.990       1.582       1.228      0.8691      0.5637      0.2932      0.1046       0.000    
  17    10.00       9.967       9.912       9.824       9.712       9.578       9.483       9.424       9.342       9.247    
        9.085       8.896       8.748       8.611       8.437       8.267       8.059       7.674       7.315       7.115    
        6.947       6.810       6.738       6.621       6.451       6.326       6.268       6.212       6.122       5.983    
        5.838       5.700       5.562       5.386       5.033       4.602       4.253       3.988       3.697       3.275    
        2.744       2.284       1.895       1.512       1.102      0.7256      0.4809      0.2665      0.1110       0.000    
  18    10.00       9.954       9.884       9.782       9.636       9.524       9.458       9.371       9.275       9.136    
        8.937       8.783       8.647       8.448       8.226       7.998       7.710       7.368       7.139       6.978    
        6.844       6.723       6.611       6.459       6.333       6.282       6.250       6.203       6.106       5.971    
        5.838       5.696       5.520       5.255       4.897       4.543       4.260       4.042       3.676       3.161    
        2.649       2.168       1.776       1.417       1.024      0.6698      0.4068      0.2228      0.1040       0.000    
  19    10.00       9.938       9.858       9.711       9.567       9.502       9.419       9.309       9.194       9.040    
        8.866       8.716       8.506       8.228       7.999       7.774       7.461       7.171       7.019       6.912    
        6.771       6.622       6.498       6.364       6.288       6.255       6.220       6.162       6.066       5.951    
        5.824       5.666       5.435       5.154       4.850       4.544       4.295       4.015       3.503       2.998    
        2.594       2.102       1.677       1.327      0.9407      0.6039      0.3662      0.2116      0.1059       0.000    
  20    10.00       9.920       9.797       9.645       9.540       9.467       9.377       9.260       9.125       8.983    
        8.804       8.587       8.307       8.053       7.850       7.579       7.288       7.135       7.005       6.860    
        6.709       6.554       6.404       6.301       6.248       6.204       6.148       6.090       6.004       5.902    
        5.781       5.622       5.384       5.119       4.836       4.565       4.299       3.868       3.331       2.902    
        2.457       1.981       1.605       1.255      0.8948      0.5426      0.3180      0.2134      0.1078       0.000    
  21    10.00       9.874       9.748       9.625       9.515       9.434       9.336       9.189       9.053       8.918    
        8.689       8.420       8.159       7.951       7.733       7.470       7.259       7.125       6.978       6.820    
        6.637       6.463       6.329       6.226       6.147       6.080       6.036       5.987       5.903       5.822    
        5.720       5.556       5.340       5.096       4.833       4.566       4.190       3.753       3.284       2.774    
        2.326       1.880       1.555       1.234      0.7771      0.4578      0.3257      0.2375      0.1141       0.000    
  22    10.00       9.856       9.708       9.589       9.497       9.400       9.259       9.114       8.995       8.819    
        8.581       8.301       8.076       7.903       7.664       7.420       7.241       7.103       6.957       6.768    
        6.559       6.383       6.213       6.060       5.958       5.910       5.880       5.825       5.782       5.727    
        5.633       5.487       5.310       5.074       4.815       4.552       4.154       3.707       3.156       2.653    
        2.266       1.862       1.502       1.026      0.6382      0.4583      0.3443      0.2288      9.0788E-02   0.000    
  23    10.00       9.825       9.682       9.583       9.483       9.340       9.183       9.072       8.923       8.741    
        8.500       8.251       8.077       7.857       7.598       7.385       7.233       7.107       6.943       6.718    
        6.495       6.288       6.067       5.800       5.562       5.524       5.597       5.626       5.648       5.627    
        5.558       5.430       5.262       5.061       4.805       4.520       4.142       3.584       3.003       2.590    
        2.219       1.761       1.246      0.8356      0.6213      0.4696      0.3432      0.2175      0.1012       0.000    
  24    10.00       9.802       9.699       9.586       9.446       9.291       9.167       9.046       8.900       8.691    
        8.469       8.275       8.082       7.817       7.541       7.372       7.247       7.117       6.921       6.694    
        6.474       6.238       5.900       5.288       4.359       4.701       5.138       5.396       5.510       5.528    
        5.481       5.371       5.226       5.015       4.767       4.477       4.007       3.418       2.924       2.485    
        2.037       1.555       1.101      0.7951      0.6169      0.4660      0.3347      0.2535      0.1395       0.000    
  25    10.00       9.828       9.719       9.584       9.438       9.298       9.172       9.056       8.877       8.669    
        8.482       8.294       8.057       7.764       7.550       7.397       7.260       7.108       6.926       6.718    
        6.482       6.249       5.639       4.322       1.283       3.794       4.738       5.189       5.396       5.453    
        5.420       5.333       5.177       4.931       4.669       4.326       3.847       3.283       2.834       2.360    
        1.844       1.391       1.022      0.7850      0.6408      0.5005      0.3655      0.2693      0.1757       0.000    
  26    10.00       9.853       9.751       9.605       9.454       9.332       9.200       9.054       8.870       8.706    
        8.543       8.291       7.990       7.741       7.585       7.450       7.289       7.093       6.900       6.722    
        6.542       6.293       5.743       4.807       3.808       4.338       4.889       5.209       5.377       5.420    
        5.369       5.280       5.100       4.858       4.607       4.236       3.616       3.102       2.729       2.155    
        1.598       1.225       1.009      0.8507      0.6976      0.5423      0.4018      0.2942      0.1756       0.000    
  27    10.00       9.886       9.762       9.638       9.503       9.361       9.230       9.087       8.921       8.762    
        8.540       8.239       7.978       7.775       7.640       7.488       7.275       7.061       6.905       6.767    
        6.620       6.370       5.968       5.470       4.944       4.988       5.183       5.340       5.423       5.408    
        5.335       5.235       5.062       4.819       4.488       3.925       3.355       2.961       2.398       1.843    
        1.449       1.207       1.051      0.9166      0.7753      0.5963      0.4291      0.3211      0.2158       0.000    
  28    10.00       9.897       9.792       9.674       9.551       9.416       9.279       9.134       8.975       8.789    
        8.513       8.238       8.010       7.815       7.675       7.518       7.338       7.133       6.934       6.800    
        6.672       6.497       6.239       5.888       5.573       5.434       5.445       5.499       5.484       5.419    
        5.310       5.188       4.990       4.669       4.203       3.638       3.172       2.647       2.101       1.738    
        1.454       1.256       1.101      0.9678      0.8226      0.6513      0.4858      0.3649      0.2224       0.000    
  29    10.00       9.902       9.803       9.714       9.596       9.472       9.339       9.192       9.022       8.769    
        8.496       8.253       8.033       7.871       7.707       7.537       7.373       7.210       7.026       6.859    
        6.726       6.581       6.410       6.202       5.923       5.764       5.693       5.642       5.569       5.418    
        5.260       5.058       4.830       4.412       3.893       3.412       2.948       2.432       2.022       1.762    
        1.531       1.313       1.144       1.014      0.8726      0.6969      0.5266      0.3853      0.2246       0.000    
  30    10.00       9.910       9.828       9.750       9.647       9.532       9.413       9.247       9.032       8.772    
        8.488       8.237       8.053       7.889       7.724       7.561       7.423       7.288       7.125       6.949    
        6.795       6.665       6.518       6.368       6.180       5.997       5.902       5.770       5.618       5.398    
        5.142       4.843       4.556       4.147       3.752       3.314       2.844       2.379       2.083       1.847    
        1.586       1.372       1.209       1.054      0.8947      0.7393      0.5607      0.4013      0.2424       0.000    
  31    10.00       9.925       9.854       9.781       9.705       9.614       9.482       9.284       9.031       8.759    
        8.484       8.248       8.070       7.900       7.753       7.601       7.460       7.356       7.195       7.028    
        6.882       6.744       6.612       6.454       6.303       6.160       6.020       5.857       5.619       5.321    
        4.960       4.628       4.354       4.059       3.681       3.236       2.795       2.418       2.182       1.969    
        1.698       1.452       1.262       1.098      0.9398      0.7752      0.5964      0.4284      0.2357       0.000    
  32    10.00       9.937       9.882       9.818       9.744       9.660       9.527       9.299       9.060       8.810    
        8.515       8.268       8.088       7.926       7.773       7.642       7.520       7.388       7.253       7.096    
        6.935       6.786       6.637       6.471       6.345       6.249       6.094       5.857       5.521       5.151    
        4.810       4.527       4.270       4.003       3.648       3.254       2.887       2.559       2.307       2.066    
        1.814       1.557       1.354       1.163      0.9820      0.8334      0.6504      0.4284      0.2127       0.000    
  33    10.00       9.945       9.900       9.848       9.776       9.680       9.509       9.287       9.086       8.850    
        8.559       8.310       8.120       7.939       7.791       7.682       7.572       7.438       7.291       7.131    
        6.964       6.798       6.617       6.470       6.375       6.276       6.044       5.717       5.386       5.070    
        4.766       4.528       4.283       3.963       3.636       3.285       2.973       2.709       2.445       2.182    
        1.947       1.703       1.481       1.280       1.080      0.9037      0.6982      0.4367      0.2057       0.000    
  34    10.00       9.950       9.920       9.874       9.784       9.649       9.483       9.318       9.110       8.852    
        8.590       8.343       8.134       7.948       7.820       7.734       7.613       7.471       7.299       7.142    
        6.977       6.776       6.601       6.472       6.368       6.203       5.923       5.648       5.333       4.997    
        4.748       4.557       4.329       4.018       3.694       3.378       3.092       2.855       2.586       2.322    
        2.098       1.874       1.639       1.434       1.221       1.014      0.7532      0.4837      0.2550       0.000    
  35    10.00       9.959       9.924       9.865       9.751       9.608       9.486       9.345       9.149       8.867    
        8.584       8.349       8.134       7.977       7.871       7.773       7.637       7.470       7.296       7.116    
        6.926       6.736       6.557       6.432       6.314       6.156       5.885       5.570       5.241       4.935    
        4.759       4.570       4.333       4.097       3.825       3.495       3.210       3.020       2.749       2.456    
        2.246       2.023       1.799       1.598       1.361       1.130      0.8675      0.5789      0.2893       0.000    
  36    10.00       9.956       9.906       9.839       9.725       9.588       9.478       9.343       9.145       8.876    
        8.577       8.319       8.158       8.037       7.933       7.802       7.632       7.460       7.260       7.007    
        6.807       6.648       6.499       6.388       6.281       6.092       5.797       5.482       5.156       4.900    
        4.741       4.580       4.367       4.148       3.918       3.620       3.339       3.132       2.895       2.581    
        2.346       2.120       1.892       1.726       1.498       1.242      0.9802      0.6789      0.3453       0.000    
  37    10.00       9.941       9.885       9.812       9.696       9.571       9.445       9.314       9.130       8.838    
        8.532       8.321       8.223       8.104       7.961       7.821       7.612       7.394       7.122       6.859    
        6.727       6.602       6.458       6.336       6.204       5.970       5.704       5.371       5.098       4.921    
        4.768       4.597       4.382       4.193       3.955       3.671       3.451       3.251       2.989       2.676    
        2.395       2.175       1.994       1.809       1.592       1.355       1.104      0.7661      0.4150       0.000    
  38    10.00       9.934       9.861       9.782       9.675       9.551       9.410       9.272       9.074       8.802    
        8.567       8.399       8.272       8.157       7.988       7.756       7.507       7.221       6.923       6.769    
        6.668       6.507       6.357       6.257       6.101       5.871       5.554       5.266       5.119       4.981    
        4.810       4.620       4.417       4.227       3.993       3.736       3.540       3.336       3.024       2.698    
        2.454       2.251       2.067       1.882       1.689       1.461       1.201      0.8765      0.4547       0.000    
  39    10.00       9.916       9.841       9.762       9.656       9.516       9.364       9.217       9.035       8.815    
        8.629       8.502       8.355       8.181       7.909       7.597       7.281       6.972       6.799       6.711    
        6.555       6.377       6.270       6.175       6.024       5.758       5.462       5.290       5.163       5.017    
        4.833       4.654       4.450       4.248       4.051       3.840       3.614       3.377       3.057       2.736    
        2.480       2.276       2.133       1.986       1.777       1.543       1.282      0.9286      0.4547       0.000    
  40    10.00       9.901       9.828       9.748       9.640       9.493       9.335       9.186       9.031       8.847    
        8.692       8.578       8.381       8.085       7.728       7.377       7.060       6.857       6.752       6.628    
        6.452       6.303       6.212       6.086       5.912       5.697       5.512       5.345       5.196       5.057    
        4.887       4.689       4.482       4.294       4.114       3.900       3.657       3.420       3.072       2.722    
        2.491       2.322       2.173       2.047       1.835       1.575       1.335      0.9648      0.4763       0.000    
  41    10.00       9.908       9.822       9.733       9.612       9.478       9.339       9.205       9.056       8.889    
        8.741       8.594       8.312       7.926       7.534       7.218       6.975       6.808       6.696       6.551    
        6.370       6.245       6.135       6.002       5.854       5.706       5.573       5.413       5.234       5.075    
        4.922       4.735       4.527       4.356       4.169       3.960       3.712       3.382       2.997       2.728    
        2.541       2.365       2.228       2.069       1.846       1.588       1.376       1.024      0.5243       0.000    
  42    10.00       9.910       9.814       9.731       9.626       9.501       9.362       9.211       9.076       8.946    
        8.761       8.487       8.130       7.731       7.380       7.140       6.931       6.775       6.640       6.466    
        6.301       6.183       6.069       5.977       5.856       5.750       5.627       5.441       5.251       5.109    
        4.977       4.774       4.552       4.392       4.232       3.998       3.679       3.284       2.943       2.738    
        2.589       2.440       2.271       2.064       1.832       1.625       1.411       1.066      0.5485       0.000    
  43    10.00       9.911       9.822       9.737       9.653       9.541       9.401       9.251       9.102       8.910    
        8.635       8.317       7.953       7.571       7.303       7.103       6.905       6.739       6.575       6.401    
        6.249       6.138       6.057       5.987       5.882       5.768       5.647       5.465       5.296       5.181    
        5.013       4.791       4.583       4.425       4.241       3.955       3.581       3.200       2.963       2.802    
        2.644       2.483       2.276       2.053       1.842       1.641       1.449       1.063      0.4788       0.000    
  44    10.00       9.905       9.824       9.750       9.657       9.570       9.451       9.266       9.061       8.789    
        8.510       8.176       7.779       7.503       7.297       7.075       6.859       6.667       6.487       6.334    
        6.226       6.140       6.066       5.994       5.903       5.787       5.644       5.501       5.371       5.227    
        5.065       4.864       4.630       4.407       4.191       3.899       3.509       3.181       2.991       2.835    
        2.684       2.506       2.299       2.100       1.879       1.656       1.405      0.9101      0.4022       0.000    
  45    10.00       9.905       9.838       9.753       9.665       9.587       9.410       9.197       8.953       8.686    
        8.452       8.051       7.683       7.478       7.265       7.022       6.776       6.579       6.423       6.314    
        6.238       6.163       6.086       5.999       5.902       5.795       5.676       5.556       5.449       5.301    
        5.107       4.892       4.655       4.386       4.141       3.824       3.458       3.200       3.044       2.887    
        2.691       2.486       2.304       2.124       1.931       1.692       1.267      0.7628      0.3863       0.000    
  46    10.00       9.922       9.850       9.759       9.662       9.513       9.326       9.149       8.926       8.665    
        8.326       7.958       7.663       7.406       7.189       6.948       6.702       6.549       6.433       6.333    
        6.263       6.194       6.101       5.998       5.902       5.808       5.711       5.604       5.497       5.360    
        5.180       4.956       4.692       4.388       4.047       3.707       3.441       3.265       3.092       2.912    
        2.686       2.472       2.291       2.147       1.939       1.605       1.136      0.7184      0.3650       0.000    
  47    10.00       9.939       9.872       9.777       9.608       9.429       9.268       9.116       8.916       8.590    
        8.225       7.883       7.599       7.383       7.151       6.884       6.672       6.536       6.444       6.362    
        6.287       6.206       6.114       6.012       5.918       5.837       5.751       5.646       5.522       5.387    
        5.227       5.028       4.687       4.284       3.964       3.714       3.483       3.332       3.173       2.923    
        2.654       2.429       2.261       2.143       1.883       1.485       1.054      0.6912      0.3548       0.000    
  48    10.00       9.946       9.875       9.733       9.562       9.413       9.242       9.088       8.875       8.530    
        8.133       7.823       7.593       7.336       7.065       6.826       6.667       6.535       6.446       6.385    
        6.310       6.212       6.111       6.023       5.947       5.879       5.797       5.680       5.534       5.376    
        5.211       4.982       4.630       4.300       4.020       3.772       3.556       3.385       3.180       2.880    
        2.596       2.415       2.275       2.055       1.707       1.351       1.006      0.6961      0.3745       0.000    
  49    10.00       9.943       9.842       9.714       9.574       9.401       9.229       9.056       8.792       8.427    
        8.085       7.795       7.517       7.274       7.065       6.840       6.635       6.515       6.457       6.398    
        6.327       6.216       6.105       6.032       5.970       5.916       5.824       5.682       5.516       5.365    
        5.192       4.913       4.615       4.394       4.138       3.847       3.585       3.379       3.142       2.823    
        2.593       2.435       2.226       1.894       1.585       1.294      0.9949      0.6960      0.3732       0.000    
  50    10.00       9.935       9.830       9.700       9.573       9.411       9.218       9.003       8.724       8.436    
        8.078       7.715       7.458       7.264       7.088       6.834       6.607       6.517       6.465       6.406    
        6.335       6.221       6.107       6.036       5.983       5.933       5.829       5.666       5.498       5.355    
        5.177       4.890       4.660       4.461       4.193       3.904       3.630       3.347       3.024       2.757    
        2.638       2.459       2.136       1.803       1.574       1.292       1.009      0.6816      0.3039       0.000    

 HEAD WILL BE SAVED ON UNIT   51 AT END OF TIME STEP  12, STRESS PERIOD    2

 DRAWDOWN WILL BE SAVED ON UNIT   52 AT END OF TIME STEP  12, STRESS PERIOD    2
1
  VOLUMETRIC BUDGET FOR ENTIRE MODEL AT END OF TIME STEP 12 IN STRESS PERIOD   2
  ------------------------------------------------------------------------------

     CUMULATIVE VOLUMES      L**3       RATES FOR THIS TIME STEP      L**3/T
     ------------------                 ------------------------

           IN:                                      IN:
           ---                                      ---
             STORAGE =        5999.6577               STORAGE =         499.8574
       CONSTANT HEAD =        7762.4980         CONSTANT HEAD =         597.2289
               WELLS =           0.0000                 WELLS =           0.0000

            TOTAL IN =       13762.1562              TOTAL IN =        1097.0864

          OUT:                                     OUT:
          ----                                     ----
             STORAGE =       9.4270E-03               STORAGE =       9.9892E-06
       CONSTANT HEAD =        7762.1465         CONSTANT HEAD =         597.0862
               WELLS =        6000.0000                 WELLS =         500.0000

           TOTAL OUT =       13762.1562             TOTAL OUT =        1097.0862

            IN - OUT =           0.0000              IN - OUT =       2.4414E-04

 PERCENT DISCREPANCY =           0.00     PERCENT DISCREPANCY =           0.00






          TIME SUMMARY AT END OF TIME STEP  12 IN STRESS PERIOD    2
                    SECONDS     MINUTES      HOURS       DAYS        YEARS
                    -----------------------------------------------------------
   TIME STEP LENGTH  86400.      1440.0      24.000      1.0000     2.73785E-03
 STRESS PERIOD TIME 1.03680E+06  17280.      288.00      12.000     3.28542E-02
         TOTAL TIME 1.12320E+06  18720.      312.00      13.000     3.55921E-02
1
 
 SOLVING FOR HEAD 

 OUTPUT CONTROL FOR STRESS PERIOD    2   TIME STEP  13
    SAVE HEAD FOR ALL LAYERS
    SAVE DRAWDOWN FOR ALL LAYERS
    SAVE BUDGET
    PRINT HEAD FOR ALL LAYERS
    PRINT BUDGET
 UBDSV1 SAVING "         STORAGE" ON UNIT  53 AT TIME STEP 13, STRESS PERIOD   2
 UBDSV2 SAVING "   CONSTANT HEAD" ON UNIT  53 AT TIME STEP 13, STRESS PERIOD   2
 UBDSV1 SAVING "FLOW RIGHT FACE " ON UNIT  53 AT TIME STEP 13, STRESS PERIOD   2
 UBDSV1 SAVING "FLOW FRONT FACE " ON UNIT  53 AT TIME STEP 13, STRESS PERIOD   2
1
              HEAD IN LAYER   1 AT END OF TIME STEP  13 IN STRESS PERIOD    2
  ---------------------------------------------------------------------------

            1           2           3           4           5           6           7           8           9          10
           11          12          13          14          15          16          17          18          19          20
           21          22          23          24          25          26          27          28          29          30
           31          32          33          34          35          36          37          38          39          40
           41          42          43          44          45          46          47          48          49          50
 ........................................................................................................................
   1    10.00       9.959       9.902       9.836       9.772       9.699       9.631       9.563       9.478       9.394    
        9.329       9.266       9.200       9.137       9.034       8.910       8.772       8.664       8.607       8.541    
        8.462       8.398       8.334       8.260       8.160       7.963       7.740       7.583       7.430       7.285    
        7.096       6.794       6.409       5.982       5.540       5.069       4.605       4.218       3.713       3.165    
        2.715       2.285       1.807       1.408       1.161      0.9524      0.7868      0.6669      0.4476       0.000    
   2    10.00       9.959       9.906       9.840       9.775       9.711       9.643       9.554       9.460       9.392    
        9.336       9.282       9.227       9.148       9.030       8.901       8.771       8.664       8.606       8.532    
        8.453       8.404       8.353       8.276       8.150       7.957       7.755       7.593       7.437       7.296    
        7.085       6.770       6.366       5.880       5.408       4.954       4.551       4.177       3.664       3.134    
        2.682       2.198       1.763       1.449       1.217       1.037      0.8317      0.6492      0.3621       0.000    
   3    10.00       9.953       9.901       9.842       9.785       9.720       9.633       9.539       9.473       9.411    
        9.349       9.299       9.251       9.175       9.055       8.895       8.754       8.667       8.599       8.524    
        8.459       8.409       8.356       8.254       8.118       7.947       7.771       7.644       7.463       7.278    
        7.014       6.640       6.181       5.712       5.292       4.867       4.472       4.072       3.540       3.049    
        2.661       2.213       1.814       1.526       1.295       1.109      0.8654      0.5802      0.2630       0.000    
   4    10.00       9.953       9.902       9.845       9.781       9.705       9.615       9.544       9.487       9.423    
        9.368       9.327       9.273       9.187       9.071       8.901       8.754       8.673       8.597       8.530    
        8.461       8.399       8.333       8.226       8.092       7.940       7.781       7.625       7.465       7.255    
        6.924       6.434       5.949       5.592       5.239       4.799       4.324       3.855       3.430       3.057    
        2.693       2.277       1.900       1.639       1.379       1.142      0.8410      0.5220      0.2500       0.000    
   5    10.00       9.950       9.898       9.834       9.769       9.699       9.619       9.556       9.498       9.439    
        9.391       9.350       9.280       9.180       9.052       8.898       8.773       8.684       8.609       8.520    
        8.438       8.372       8.292       8.187       8.067       7.913       7.755       7.611       7.449       7.197    
        6.727       6.183       5.794       5.513       5.163       4.684       4.193       3.767       3.446       3.108    
        2.749       2.365       1.989       1.746       1.467       1.125      0.7657      0.4656      0.2341       0.000    
   6    10.00       9.943       9.882       9.828       9.769       9.693       9.625       9.572       9.510       9.454    
        9.409       9.360       9.272       9.160       9.048       8.919       8.794       8.692       8.594       8.492    
        8.410       8.334       8.264       8.170       8.018       7.866       7.738       7.592       7.369       6.992    
        6.478       5.987       5.663       5.417       5.100       4.626       4.135       3.770       3.499       3.191    
        2.860       2.520       2.135       1.808       1.438       1.061      0.6765      0.4019      0.2212       0.000    
   7    10.00       9.932       9.873       9.823       9.762       9.698       9.638       9.587       9.530       9.475    
        9.420       9.346       9.250       9.145       9.039       8.939       8.808       8.671       8.559       8.459    
        8.374       8.301       8.240       8.125       7.970       7.840       7.711       7.520       7.172       6.695    
        6.202       5.802       5.578       5.356       4.987       4.545       4.211       3.853       3.553       3.349    
        3.033       2.667       2.213       1.748       1.334      0.9218      0.5831      0.4050      0.2085       0.000    
   8    10.00       9.931       9.878       9.821       9.760       9.704       9.651       9.600       9.548       9.495    
        9.423       9.329       9.234       9.135       9.038       8.926       8.765       8.622       8.531       8.435    
        8.341       8.276       8.190       8.070       7.936       7.801       7.589       7.296       6.867       6.448    
        6.072       5.753       5.543       5.288       4.896       4.527       4.224       3.959       3.721       3.484    
        3.174       2.712       2.156       1.659       1.228      0.8635      0.6175      0.3969      0.1902       0.000    
   9    10.00       9.942       9.877       9.816       9.770       9.723       9.670       9.617       9.559       9.503    
        9.420       9.314       9.212       9.113       9.010       8.879       8.726       8.594       8.496       8.399    
        8.315       8.234       8.119       8.006       7.886       7.725       7.427       7.036       6.636       6.328    
        6.015       5.741       5.507       5.186       4.819       4.506       4.274       4.072       3.858       3.597    
        3.224       2.720       2.152       1.658       1.238      0.8830      0.6233      0.4005      0.2047       0.000    
  10    10.00       9.940       9.872       9.821       9.779       9.734       9.686       9.640       9.574       9.492    
        9.392       9.282       9.185       9.094       8.989       8.830       8.669       8.556       8.465       8.374    
        8.294       8.187       8.061       7.936       7.799       7.577       7.207       6.799       6.450       6.201    
        5.992       5.751       5.471       5.142       4.792       4.520       4.336       4.159       3.927       3.627    
        3.201       2.678       2.158       1.736       1.341      0.9723      0.6430      0.4254      0.2286       0.000    
  11    10.00       9.927       9.872       9.831       9.789       9.751       9.707       9.643       9.553       9.462    
        9.363       9.256       9.167       9.059       8.918       8.768       8.636       8.536       8.452       8.360    
        8.247       8.113       7.950       7.809       7.594       7.291       6.972       6.660       6.356       6.159    
        5.994       5.698       5.384       5.110       4.834       4.613       4.417       4.191       3.904       3.542    
        3.142       2.737       2.236       1.819       1.443       1.076      0.7227      0.4178      0.1752       0.000    
  12    10.00       9.930       9.879       9.835       9.800       9.760       9.710       9.621       9.518       9.432    
        9.340       9.230       9.123       8.997       8.875       8.738       8.611       8.523       8.435       8.313    
        8.137       7.945       7.757       7.565       7.285       7.052       6.853       6.552       6.288       6.120    
        5.930       5.664       5.391       5.130       4.919       4.708       4.455       4.179       3.830       3.466    
        3.126       2.758       2.274       1.863       1.509       1.125      0.7607      0.3943      0.1308       0.000    
  13    10.00       9.943       9.895       9.849       9.807       9.760       9.682       9.581       9.484       9.396    
        9.295       9.190       9.080       8.951       8.818       8.690       8.599       8.495       8.382       8.162    
        7.906       7.704       7.497       7.249       7.028       6.902       6.683       6.416       6.256       6.096    
        5.864       5.619       5.399       5.187       4.999       4.802       4.498       4.122       3.783       3.438    
        3.112       2.731       2.212       1.830       1.525       1.116      0.6997      0.3407      0.1043       0.000    
  14    10.00       9.956       9.915       9.866       9.809       9.732       9.631       9.531       9.445       9.350    
        9.247       9.149       9.028       8.895       8.780       8.669       8.539       8.413       8.204       7.886    
        7.641       7.444       7.175       6.973       6.857       6.738       6.525       6.347       6.200       6.036    
        5.826       5.627       5.458       5.260       5.052       4.848       4.507       4.094       3.743       3.388    
        3.052       2.579       2.085       1.784       1.438       1.071      0.7017      0.3159      8.9963E-02   0.000    
  15    10.00       9.965       9.922       9.868       9.800       9.689       9.568       9.480       9.401       9.308    
        9.228       9.129       8.977       8.829       8.726       8.568       8.409       8.277       7.971       7.625    
        7.400       7.142       6.906       6.817       6.742       6.605       6.420       6.252       6.129       5.994    
        5.815       5.660       5.509       5.330       5.117       4.867       4.470       4.015       3.646       3.320    
        2.960       2.482       2.091       1.715       1.304      0.9802      0.6277      0.2900      9.8101E-02   0.000    
  16    10.00       9.971       9.925       9.859       9.760       9.629       9.521       9.452       9.382       9.290    
        9.195       9.056       8.873       8.733       8.591       8.415       8.308       8.058       7.634       7.326    
        7.119       6.889       6.791       6.729       6.613       6.443       6.294       6.195       6.109       5.984    
        5.826       5.678       5.550       5.370       5.114       4.784       4.336       3.943       3.647       3.298    
        2.880       2.410       1.990       1.582       1.228      0.8691      0.5637      0.2932      0.1046       0.000    
  17    10.00       9.967       9.912       9.824       9.712       9.578       9.483       9.424       9.342       9.246    
        9.084       8.895       8.745       8.608       8.432       8.260       8.050       7.658       7.293       7.090    
        6.920       6.783       6.711       6.594       6.422       6.297       6.240       6.186       6.098       5.963    
        5.821       5.686       5.549       5.376       5.026       4.597       4.250       3.987       3.696       3.274    
        2.744       2.284       1.895       1.512       1.102      0.7256      0.4809      0.2665      0.1110       0.000    
  18    10.00       9.954       9.884       9.782       9.636       9.524       9.458       9.371       9.274       9.136    
        8.936       8.781       8.644       8.443       8.219       7.987       7.694       7.345       7.112       6.949    
        6.815       6.693       6.581       6.427       6.301       6.251       6.220       6.174       6.080       5.948    
        5.819       5.680       5.507       5.245       4.890       4.538       4.257       4.039       3.675       3.160    
        2.649       2.167       1.776       1.417       1.024      0.6698      0.4068      0.2228      0.1040       0.000    
  19    10.00       9.938       9.858       9.710       9.567       9.502       9.419       9.309       9.193       9.039    
        8.864       8.714       8.501       8.220       7.987       7.758       7.439       7.144       6.990       6.882    
        6.739       6.589       6.464       6.330       6.255       6.223       6.189       6.131       6.037       5.925    
        5.802       5.648       5.421       5.144       4.843       4.539       4.292       4.013       3.502       2.997    
        2.593       2.102       1.677       1.327      0.9407      0.6038      0.3662      0.2116      0.1059       0.000    
  20    10.00       9.920       9.797       9.645       9.540       9.467       9.377       9.260       9.124       8.982    
        8.802       8.583       8.300       8.043       7.836       7.559       7.263       7.107       6.975       6.828    
        6.676       6.520       6.368       6.265       6.213       6.170       6.114       6.057       5.973       5.874    
        5.756       5.601       5.369       5.108       4.829       4.560       4.295       3.866       3.330       2.902    
        2.456       1.981       1.605       1.255      0.8948      0.5426      0.3180      0.2134      0.1078       0.000    
  21    10.00       9.874       9.748       9.625       9.515       9.434       9.336       9.189       9.052       8.917    
        8.686       8.414       8.150       7.939       7.716       7.448       7.233       7.097       6.947       6.787    
        6.602       6.426       6.292       6.188       6.109       6.042       5.999       5.951       5.869       5.790    
        5.692       5.533       5.322       5.084       4.825       4.560       4.187       3.751       3.283       2.773    
        2.325       1.880       1.555       1.234      0.7771      0.4578      0.3257      0.2375      0.1141       0.000    
  22    10.00       9.856       9.708       9.589       9.497       9.399       9.258       9.114       8.994       8.817    
        8.577       8.295       8.066       7.890       7.646       7.397       7.214       7.074       6.925       6.734    
        6.522       6.344       6.174       6.020       5.918       5.870       5.839       5.785       5.744       5.692    
        5.603       5.462       5.291       5.060       4.805       4.545       4.150       3.705       3.155       2.653    
        2.266       1.862       1.502       1.026      0.6381      0.4583      0.3443      0.2288      9.0788E-02   0.000    
  23    10.00       9.825       9.682       9.583       9.483       9.340       9.183       9.071       8.921       8.738    
        8.495       8.243       8.066       7.843       7.579       7.361       7.206       7.077       6.911       6.682    
        6.456       6.248       6.025       5.757       5.518       5.479       5.552       5.583       5.607       5.590    
        5.526       5.404       5.241       5.046       4.795       4.513       4.138       3.582       3.003       2.590    
        2.219       1.761       1.246      0.8355      0.6213      0.4696      0.3432      0.2175      0.1012       0.000    
  24    10.00       9.802       9.699       9.586       9.446       9.291       9.167       9.045       8.899       8.688    
        8.464       8.267       8.071       7.802       7.520       7.347       7.220       7.088       6.888       6.658    
        6.434       6.197       5.856       5.241       4.308       4.648       5.087       5.348       5.466       5.488    
        5.448       5.344       5.204       5.000       4.756       4.470       4.003       3.417       2.923       2.485    
        2.037       1.555       1.101      0.7951      0.6169      0.4660      0.3347      0.2535      0.1395       0.000    
  25    10.00       9.828       9.719       9.584       9.437       9.298       9.171       9.055       8.876       8.666    
        8.477       8.286       8.046       7.748       7.529       7.373       7.233       7.078       6.893       6.681    
        6.443       6.207       5.592       4.270       1.224       3.737       4.683       5.138       5.350       5.413    
        5.386       5.305       5.156       4.916       4.659       4.320       3.844       3.281       2.833       2.360    
        1.844       1.391       1.022      0.7850      0.6408      0.5005      0.3655      0.2693      0.1757       0.000    
  26    10.00       9.853       9.751       9.605       9.454       9.331       9.200       9.053       8.868       8.703    
        8.539       8.284       7.979       7.725       7.566       7.428       7.263       7.063       6.866       6.685    
        6.503       6.251       5.695       4.753       3.750       4.279       4.831       5.155       5.329       5.380    
        5.336       5.252       5.080       4.844       4.597       4.230       3.613       3.101       2.728       2.154    
        1.598       1.225       1.009      0.8507      0.6976      0.5423      0.4018      0.2942      0.1756       0.000    
  27    10.00       9.886       9.762       9.638       9.503       9.360       9.229       9.086       8.919       8.759    
        8.536       8.232       7.967       7.761       7.623       7.467       7.250       7.031       6.872       6.731    
        6.583       6.328       5.922       5.419       4.888       4.930       5.126       5.287       5.376       5.369    
        5.304       5.209       5.043       4.806       4.479       3.921       3.353       2.960       2.397       1.843    
        1.449       1.207       1.051      0.9166      0.7753      0.5963      0.4291      0.3211      0.2158       0.000    
  28    10.00       9.897       9.792       9.674       9.551       9.416       9.279       9.133       8.974       8.787    
        8.509       8.231       8.000       7.802       7.659       7.499       7.315       7.105       6.902       6.765    
        6.635       6.457       6.195       5.839       5.520       5.379       5.391       5.449       5.439       5.383    
        5.280       5.164       4.972       4.658       4.197       3.635       3.170       2.647       2.101       1.738    
        1.454       1.256       1.101      0.9677      0.8226      0.6512      0.4858      0.3649      0.2224       0.000    
  29    10.00       9.902       9.802       9.714       9.595       9.471       9.339       9.191       9.020       8.767    
        8.492       8.246       8.024       7.860       7.692       7.519       7.352       7.185       6.997       6.826    
        6.691       6.544       6.369       6.158       5.874       5.714       5.645       5.597       5.529       5.386    
        5.235       5.039       4.817       4.406       3.890       3.411       2.947       2.432       2.022       1.762    
        1.531       1.313       1.144       1.014      0.8726      0.6969      0.5266      0.3853      0.2246       0.000    
  30    10.00       9.910       9.828       9.750       9.646       9.531       9.412       9.247       9.031       8.770    
        8.484       8.231       8.045       7.879       7.711       7.546       7.405       7.267       7.100       6.920    
        6.763       6.630       6.481       6.329       6.139       5.955       5.863       5.732       5.587       5.373    
        5.124       4.831       4.548       4.143       3.750       3.313       2.844       2.379       2.083       1.846    
        1.585       1.372       1.209       1.054      0.8947      0.7392      0.5607      0.4013      0.2424       0.000    
  31    10.00       9.925       9.854       9.781       9.705       9.614       9.482       9.283       9.030       8.757    
        8.480       8.243       8.063       7.891       7.742       7.587       7.444       7.338       7.174       7.003    
        6.854       6.714       6.580       6.422       6.273       6.129       5.989       5.828       5.595       5.304    
        4.950       4.621       4.350       4.057       3.679       3.235       2.795       2.418       2.182       1.969    
        1.698       1.452       1.262       1.098      0.9398      0.7752      0.5964      0.4284      0.2357       0.000    
  32    10.00       9.937       9.882       9.817       9.744       9.660       9.527       9.299       9.059       8.808    
        8.512       8.264       8.082       7.919       7.764       7.630       7.506       7.372       7.235       7.075    
        6.912       6.761       6.612       6.447       6.321       6.224       6.069       5.836       5.506       5.141    
        4.804       4.523       4.267       4.001       3.647       3.254       2.887       2.559       2.307       2.066    
        1.814       1.557       1.354       1.163      0.9820      0.8334      0.6504      0.4284      0.2127       0.000    
  33    10.00       9.945       9.900       9.848       9.776       9.679       9.509       9.286       9.085       8.849    
        8.556       8.307       8.116       7.933       7.784       7.673       7.561       7.425       7.276       7.115    
        6.946       6.778       6.597       6.450       6.354       6.256       6.027       5.705       5.378       5.065    
        4.762       4.525       4.281       3.962       3.635       3.285       2.973       2.709       2.445       2.182    
        1.946       1.703       1.481       1.280       1.080      0.9037      0.6982      0.4367      0.2057       0.000    
  34    10.00       9.950       9.920       9.874       9.784       9.649       9.483       9.318       9.110       8.851    
        8.588       8.340       8.130       7.943       7.813       7.726       7.605       7.461       7.288       7.129    
        6.963       6.761       6.586       6.456       6.352       6.189       5.912       5.640       5.328       4.994    
        4.746       4.556       4.328       4.017       3.693       3.378       3.092       2.855       2.586       2.322    
        2.097       1.874       1.639       1.434       1.221       1.014      0.7532      0.4837      0.2550       0.000    
  35    10.00       9.959       9.924       9.865       9.751       9.608       9.486       9.344       9.149       8.866    
        8.583       8.347       8.131       7.973       7.866       7.767       7.630       7.463       7.287       7.107    
        6.917       6.726       6.547       6.421       6.304       6.147       5.878       5.565       5.238       4.934    
        4.757       4.569       4.332       4.096       3.825       3.495       3.210       3.020       2.749       2.456    
        2.246       2.023       1.799       1.598       1.361       1.130      0.8675      0.5789      0.2893       0.000    
  36    10.00       9.956       9.906       9.839       9.725       9.588       9.478       9.343       9.145       8.876    
        8.576       8.317       8.155       8.034       7.930       7.798       7.627       7.455       7.254       7.001    
        6.801       6.642       6.493       6.382       6.274       6.087       5.793       5.480       5.155       4.899    
        4.740       4.579       4.367       4.148       3.918       3.619       3.339       3.132       2.895       2.581    
        2.346       2.120       1.892       1.726       1.498       1.242      0.9802      0.6789      0.3453       0.000    
  37    10.00       9.941       9.885       9.812       9.696       9.571       9.445       9.314       9.129       8.837    
        8.531       8.320       8.221       8.101       7.958       7.818       7.609       7.390       7.118       6.855    
        6.723       6.598       6.454       6.332       6.200       5.967       5.702       5.370       5.097       4.921    
        4.768       4.597       4.382       4.193       3.955       3.671       3.451       3.251       2.989       2.676    
        2.395       2.175       1.994       1.809       1.592       1.355       1.104      0.7661      0.4150       0.000    
  38    10.00       9.934       9.861       9.782       9.675       9.551       9.410       9.272       9.073       8.801    
        8.566       8.398       8.271       8.155       7.986       7.754       7.505       7.219       6.921       6.767    
        6.666       6.504       6.354       6.255       6.099       5.869       5.553       5.266       5.119       4.980    
        4.810       4.620       4.417       4.227       3.993       3.736       3.540       3.336       3.024       2.698    
        2.454       2.251       2.067       1.882       1.689       1.461       1.201      0.8765      0.4547       0.000    
  39    10.00       9.916       9.841       9.762       9.656       9.516       9.363       9.217       9.035       8.814    
        8.629       8.501       8.354       8.180       7.908       7.596       7.280       6.971       6.798       6.709    
        6.553       6.376       6.269       6.174       6.022       5.758       5.462       5.290       5.163       5.017    
        4.833       4.654       4.450       4.248       4.051       3.840       3.614       3.377       3.057       2.736    
        2.480       2.276       2.133       1.986       1.777       1.543       1.282      0.9286      0.4547       0.000    
  40    10.00       9.901       9.828       9.748       9.640       9.493       9.335       9.186       9.031       8.846    
        8.692       8.578       8.381       8.084       7.728       7.376       7.059       6.857       6.751       6.628    
        6.452       6.302       6.211       6.085       5.911       5.697       5.512       5.344       5.195       5.057    
        4.887       4.689       4.482       4.294       4.114       3.900       3.657       3.420       3.072       2.722    
        2.491       2.322       2.173       2.047       1.835       1.575       1.335      0.9648      0.4763       0.000    
  41    10.00       9.908       9.822       9.733       9.612       9.478       9.339       9.205       9.056       8.889    
        8.741       8.594       8.312       7.926       7.534       7.217       6.975       6.808       6.695       6.550    
        6.370       6.245       6.135       6.001       5.854       5.706       5.573       5.413       5.234       5.075    
        4.922       4.734       4.527       4.356       4.169       3.960       3.712       3.382       2.997       2.728    
        2.541       2.365       2.228       2.069       1.846       1.588       1.376       1.024      0.5243       0.000    
  42    10.00       9.910       9.814       9.731       9.626       9.500       9.362       9.211       9.076       8.946    
        8.761       8.486       8.130       7.731       7.380       7.140       6.931       6.775       6.640       6.466    
        6.300       6.182       6.069       5.976       5.856       5.750       5.627       5.441       5.250       5.109    
        4.976       4.774       4.552       4.392       4.232       3.998       3.679       3.284       2.943       2.738    
        2.589       2.440       2.271       2.064       1.832       1.625       1.411       1.066      0.5485       0.000    
  43    10.00       9.911       9.822       9.737       9.653       9.541       9.401       9.251       9.102       8.910    
        8.635       8.317       7.953       7.571       7.303       7.102       6.905       6.739       6.575       6.401    
        6.249       6.138       6.057       5.987       5.882       5.768       5.646       5.465       5.295       5.181    
        5.013       4.791       4.583       4.425       4.241       3.955       3.581       3.200       2.963       2.802    
        2.644       2.483       2.276       2.053       1.842       1.641       1.449       1.063      0.4788       0.000    
  44    10.00       9.905       9.824       9.750       9.657       9.570       9.451       9.265       9.061       8.789    
        8.510       8.176       7.779       7.503       7.297       7.075       6.858       6.666       6.487       6.333    
        6.226       6.140       6.066       5.993       5.903       5.787       5.644       5.501       5.371       5.227    
        5.065       4.864       4.630       4.407       4.191       3.899       3.509       3.181       2.991       2.835    
        2.684       2.506       2.299       2.100       1.879       1.656       1.405      0.9101      0.4022       0.000    
  45    10.00       9.905       9.838       9.753       9.665       9.587       9.410       9.197       8.953       8.686    
        8.452       8.051       7.683       7.478       7.265       7.022       6.776       6.579       6.423       6.314    
        6.238       6.163       6.085       5.999       5.902       5.795       5.676       5.556       5.449       5.301    
        5.107       4.892       4.655       4.386       4.141       3.824       3.458       3.200       3.044       2.887    
        2.691       2.486       2.304       2.124       1.931       1.692       1.267      0.7628      0.3863       0.000    
  46    10.00       9.922       9.850       9.759       9.662       9.513       9.326       9.149       8.926       8.665    
        8.326       7.958       7.663       7.406       7.189       6.948       6.702       6.549       6.433       6.333    
        6.263       6.194       6.101       5.998       5.902       5.808       5.711       5.604       5.497       5.360    
        5.180       4.956       4.692       4.388       4.047       3.707       3.441       3.265       3.092       2.912    
        2.686       2.472       2.291       2.147       1.939       1.605       1.136      0.7184      0.3650       0.000    
  47    10.00       9.939       9.872       9.777       9.608       9.428       9.268       9.116       8.916       8.590    
        8.225       7.883       7.599       7.383       7.151       6.884       6.672       6.536       6.444       6.362    
        6.287       6.206       6.114       6.012       5.918       5.837       5.751       5.646       5.522       5.387    
        5.227       5.028       4.687       4.284       3.964       3.714       3.483       3.332       3.173       2.923    
        2.654       2.429       2.261       2.143       1.883       1.485       1.054      0.6912      0.3548       0.000    
  48    10.00       9.946       9.875       9.733       9.562       9.413       9.242       9.088       8.875       8.530    
        8.133       7.823       7.593       7.336       7.065       6.826       6.667       6.534       6.446       6.385    
        6.310       6.212       6.111       6.023       5.947       5.879       5.797       5.680       5.534       5.376    
        5.211       4.982       4.630       4.300       4.020       3.772       3.556       3.385       3.180       2.880    
        2.596       2.415       2.275       2.055       1.707       1.351       1.006      0.6961      0.3745       0.000    
  49    10.00       9.943       9.842       9.714       9.574       9.401       9.229       9.056       8.792       8.427    
        8.085       7.795       7.517       7.274       7.065       6.840       6.635       6.515       6.457       6.398    
        6.327       6.216       6.105       6.032       5.970       5.916       5.824       5.682       5.516       5.365    
        5.192       4.913       4.615       4.394       4.138       3.847       3.585       3.379       3.142       2.823    
        2.593       2.435       2.226       1.894       1.585       1.294      0.9949      0.6960      0.3732       0.000    
  50    10.00       9.935       9.830       9.700       9.573       9.411       9.218       9.003       8.724       8.436    
        8.078       7.715       7.458       7.264       7.088       6.834       6.607       6.517       6.465       6.406    
        6.335       6.221       6.107       6.036       5.983       5.933       5.829       5.666       5.498       5.355    
        5.177       4.890       4.660       4.461       4.193       3.904       3.630       3.347       3.024       2.757    
        2.638       2.459       2.136       1.803       1.574       1.292       1.009      0.6816      0.3039       0.000    

 HEAD WILL BE SAVED ON UNIT   51 AT END OF TIME STEP  13, STRESS PERIOD    2

 DRAWDOWN WILL BE SAVED ON UNIT   52 AT END OF TIME STEP  13, STRESS PERIOD    2
1
  VOLUMETRIC BUDGET FOR ENTIRE MODEL AT END OF TIME STEP 13 IN STRESS PERIOD   2
  ------------------------------------------------------------------------------

     CUMULATIVE VOLUMES      L**3       RATES FOR THIS TIME STEP      L**3/T
     ------------------                 ------------------------

           IN:                                      IN:
           ---                                      ---
             STORAGE =        6499.4429               STORAGE =         499.7852
       CONSTANT HEAD =        8359.7969         CONSTANT HEAD =         597.2990
               WELLS =           0.0000                 WELLS =           0.0000

            TOTAL IN =       14859.2402              TOTAL IN =        1097.0842

          OUT:                                     OUT:
          ----                                     ----
             STORAGE =       9.4311E-03               STORAGE =       4.1073E-06
       CONSTANT HEAD =        8359.2305         CONSTANT HEAD =         597.0845
               WELLS =        6500.0000                 WELLS =         500.0000

           TOTAL OUT =       14859.2402             TOTAL OUT =        1097.0845

            IN - OUT =           0.0000              IN - OUT =      -2.4414E-04

 PERCENT DISCREPANCY =           0.00     PERCENT DISCREPANCY =           0.00






          TIME SUMMARY AT END OF TIME STEP  13 IN STRESS PERIOD    2
                    SECONDS     MINUTES      HOURS       DAYS        YEARS
                    -----------------------------------------------------------
   TIME STEP LENGTH  86400.      1440.0      24.000      1.0000     2.73785E-03
 STRESS PERIOD TIME 1.12320E+06  18720.      312.00      13.000     3.55921E-02
         TOTAL TIME 1.20960E+06  20160.      336.00      14.000     3.83299E-02
1
 
 SOLVING FOR HEAD 

 OUTPUT CONTROL FOR STRESS PERIOD    2   TIME STEP  14
    SAVE HEAD FOR ALL LAYERS
    SAVE DRAWDOWN FOR ALL LAYERS
    SAVE BUDGET
    PRINT HEAD FOR ALL LAYERS
    PRINT BUDGET
 UBDSV1 SAVING "         STORAGE" ON UNIT  53 AT TIME STEP 14, STRESS PERIOD   2
 UBDSV2 SAVING "   CONSTANT HEAD" ON UNIT  53 AT TIME STEP 14, STRESS PERIOD   2
 UBDSV1 SAVING "FLOW RIGHT FACE " ON UNIT  53 AT TIME STEP 14, STRESS PERIOD   2
 UBDSV1 SAVING "FLOW FRONT FACE " ON UNIT  53 AT TIME STEP 14, STRESS PERIOD   2
1
              HEAD IN LAYER   1 AT END OF TIME STEP  14 IN STRESS PERIOD    2
  ---------------------------------------------------------------------------

            1           2           3           4           5           6           7           8           9          10
           11          12          13          14          15          16          17          18          19          20
           21          22          23          24          25          26          27          28          29          30
           31          32          33          34          35          36          37          38          39          40
           41          42          43          44          45          46          47          48          49          50
 ........................................................................................................................
   1    10.00       9.959       9.902       9.836       9.772       9.699       9.631       9.563       9.478       9.394    
        9.329       9.266       9.200       9.137       9.034       8.910       8.772       8.663       8.607       8.540    
        8.461       8.397       8.334       8.259       8.160       7.962       7.739       7.583       7.429       7.285    
        7.096       6.794       6.409       5.982       5.539       5.069       4.605       4.218       3.713       3.165    
        2.715       2.285       1.807       1.408       1.161      0.9524      0.7868      0.6669      0.4476       0.000    
   2    10.00       9.959       9.906       9.840       9.775       9.711       9.643       9.554       9.460       9.392    
        9.336       9.281       9.227       9.148       9.030       8.901       8.771       8.663       8.605       8.531    
        8.452       8.404       8.353       8.275       8.149       7.957       7.755       7.593       7.437       7.296    
        7.085       6.770       6.366       5.880       5.408       4.954       4.551       4.177       3.664       3.134    
        2.682       2.198       1.763       1.449       1.217       1.037      0.8317      0.6491      0.3621       0.000    
   3    10.00       9.953       9.901       9.842       9.785       9.720       9.633       9.539       9.473       9.411    
        9.349       9.299       9.251       9.175       9.054       8.895       8.753       8.666       8.598       8.523    
        8.459       8.409       8.356       8.253       8.117       7.946       7.771       7.644       7.463       7.278    
        7.013       6.640       6.181       5.712       5.292       4.867       4.472       4.072       3.540       3.049    
        2.661       2.213       1.814       1.526       1.295       1.109      0.8654      0.5802      0.2630       0.000    
   4    10.00       9.953       9.902       9.845       9.781       9.705       9.615       9.544       9.487       9.423    
        9.368       9.327       9.273       9.187       9.070       8.901       8.754       8.672       8.596       8.529    
        8.460       8.398       8.332       8.226       8.091       7.939       7.780       7.624       7.465       7.255    
        6.924       6.434       5.948       5.591       5.239       4.798       4.324       3.855       3.430       3.057    
        2.693       2.277       1.900       1.639       1.379       1.142      0.8410      0.5220      0.2500       0.000    
   5    10.00       9.950       9.898       9.834       9.769       9.699       9.618       9.556       9.498       9.438    
        9.391       9.350       9.280       9.180       9.051       8.897       8.772       8.683       8.608       8.519    
        8.438       8.371       8.291       8.187       8.067       7.912       7.754       7.611       7.449       7.197    
        6.727       6.182       5.793       5.512       5.163       4.684       4.193       3.766       3.446       3.108    
        2.749       2.364       1.989       1.746       1.467       1.124      0.7657      0.4656      0.2341       0.000    
   6    10.00       9.943       9.882       9.828       9.769       9.693       9.625       9.572       9.510       9.454    
        9.409       9.360       9.272       9.160       9.048       8.919       8.793       8.691       8.593       8.491    
        8.409       8.333       8.263       8.169       8.017       7.865       7.737       7.591       7.369       6.991    
        6.478       5.986       5.662       5.416       5.100       4.626       4.135       3.770       3.498       3.190    
        2.860       2.520       2.135       1.808       1.438       1.061      0.6765      0.4019      0.2212       0.000    
   7    10.00       9.932       9.873       9.823       9.762       9.698       9.637       9.587       9.530       9.475    
        9.420       9.346       9.250       9.145       9.039       8.938       8.808       8.670       8.559       8.458    
        8.373       8.299       8.239       8.123       7.969       7.839       7.710       7.519       7.171       6.693    
        6.201       5.801       5.576       5.355       4.986       4.544       4.210       3.853       3.553       3.349    
        3.033       2.667       2.213       1.748       1.334      0.9218      0.5831      0.4050      0.2085       0.000    
   8    10.00       9.931       9.878       9.821       9.760       9.704       9.651       9.600       9.547       9.495    
        9.422       9.329       9.234       9.135       9.037       8.925       8.764       8.621       8.530       8.434    
        8.339       8.275       8.188       8.068       7.934       7.799       7.587       7.294       6.865       6.446    
        6.071       5.752       5.541       5.287       4.895       4.526       4.224       3.958       3.720       3.483    
        3.174       2.712       2.156       1.659       1.228      0.8635      0.6175      0.3969      0.1902       0.000    
   9    10.00       9.942       9.877       9.816       9.770       9.723       9.670       9.616       9.559       9.503    
        9.420       9.314       9.212       9.113       9.010       8.878       8.725       8.593       8.495       8.398    
        8.313       8.232       8.117       8.004       7.883       7.722       7.424       7.033       6.633       6.325    
        6.012       5.738       5.505       5.184       4.818       4.504       4.273       4.071       3.857       3.596    
        3.224       2.720       2.152       1.658       1.238      0.8830      0.6233      0.4005      0.2047       0.000    
  10    10.00       9.940       9.872       9.821       9.779       9.734       9.686       9.640       9.574       9.492    
        9.392       9.282       9.185       9.093       8.988       8.829       8.668       8.555       8.463       8.372    
        8.292       8.185       8.058       7.933       7.795       7.573       7.202       6.794       6.445       6.196    
        5.988       5.747       5.468       5.140       4.790       4.518       4.334       4.158       3.926       3.626    
        3.200       2.678       2.158       1.736       1.341      0.9723      0.6430      0.4254      0.2286       0.000    
  11    10.00       9.927       9.872       9.831       9.789       9.751       9.707       9.643       9.553       9.462    
        9.363       9.256       9.167       9.058       8.918       8.767       8.635       8.534       8.450       8.358    
        8.245       8.110       7.946       7.805       7.588       7.284       6.965       6.653       6.349       6.153    
        5.989       5.693       5.380       5.106       4.831       4.611       4.416       4.190       3.903       3.542    
        3.142       2.737       2.236       1.819       1.443       1.076      0.7226      0.4178      0.1752       0.000    
  12    10.00       9.930       9.879       9.835       9.800       9.760       9.710       9.621       9.518       9.431    
        9.340       9.230       9.123       8.996       8.873       8.737       8.609       8.521       8.432       8.310    
        8.133       7.939       7.750       7.557       7.275       7.042       6.843       6.542       6.279       6.113    
        5.923       5.657       5.386       5.125       4.915       4.705       4.453       4.178       3.829       3.466    
        3.126       2.758       2.274       1.863       1.509       1.125      0.7607      0.3943      0.1308       0.000    
  13    10.00       9.943       9.895       9.849       9.807       9.760       9.681       9.581       9.484       9.396    
        9.295       9.189       9.080       8.950       8.816       8.688       8.596       8.492       8.378       8.157    
        7.898       7.695       7.486       7.236       7.014       6.888       6.670       6.403       6.244       6.085    
        5.855       5.611       5.392       5.182       4.995       4.798       4.496       4.120       3.783       3.438    
        3.111       2.731       2.212       1.830       1.525       1.116      0.6997      0.3407      0.1043       0.000    
  14    10.00       9.956       9.915       9.866       9.809       9.732       9.631       9.531       9.445       9.349    
        9.246       9.149       9.027       8.894       8.778       8.667       8.536       8.409       8.199       7.877    
        7.630       7.431       7.159       6.956       6.839       6.721       6.508       6.331       6.184       6.022    
        5.814       5.617       5.449       5.253       5.046       4.844       4.504       4.093       3.742       3.387    
        3.051       2.579       2.085       1.784       1.438       1.071      0.7017      0.3159      8.9962E-02   0.000    
  15    10.00       9.965       9.922       9.868       9.800       9.689       9.567       9.480       9.400       9.307    
        9.228       9.129       8.976       8.828       8.723       8.564       8.404       8.271       7.962       7.612    
        7.384       7.123       6.885       6.795       6.721       6.584       6.399       6.232       6.111       5.977    
        5.801       5.647       5.499       5.321       5.111       4.862       4.467       4.014       3.645       3.319    
        2.959       2.482       2.091       1.715       1.304      0.9802      0.6277      0.2900      9.8101E-02   0.000    
  16    10.00       9.971       9.925       9.859       9.760       9.629       9.521       9.452       9.382       9.289    
        9.195       9.054       8.871       8.730       8.588       8.410       8.302       8.049       7.618       7.307    
        7.097       6.865       6.766       6.704       6.589       6.418       6.270       6.171       6.088       5.965    
        5.810       5.664       5.538       5.361       5.107       4.779       4.333       3.941       3.646       3.298    
        2.879       2.410       1.990       1.582       1.228      0.8690      0.5637      0.2932      0.1046       0.000    
  17    10.00       9.967       9.912       9.824       9.712       9.578       9.483       9.423       9.342       9.246    
        9.083       8.893       8.743       8.604       8.426       8.252       8.039       7.642       7.271       7.066    
        6.894       6.756       6.684       6.566       6.394       6.268       6.213       6.160       6.075       5.943    
        5.803       5.670       5.536       5.365       5.019       4.593       4.247       3.984       3.694       3.274    
        2.744       2.284       1.895       1.512       1.102      0.7255      0.4809      0.2665      0.1110       0.000    
  18    10.00       9.954       9.884       9.782       9.636       9.524       9.458       9.371       9.274       9.135    
        8.934       8.779       8.640       8.437       8.210       7.975       7.677       7.323       7.086       6.921    
        6.786       6.663       6.551       6.396       6.270       6.221       6.191       6.147       6.054       5.926    
        5.799       5.663       5.493       5.234       4.883       4.533       4.254       4.037       3.673       3.159    
        2.649       2.167       1.776       1.417       1.024      0.6698      0.4068      0.2228      0.1040       0.000    
  19    10.00       9.938       9.858       9.710       9.566       9.501       9.419       9.308       9.193       9.038    
        8.862       8.711       8.496       8.211       7.975       7.742       7.418       7.118       6.962       6.852    
        6.708       6.557       6.432       6.297       6.223       6.191       6.158       6.101       6.009       5.900    
        5.779       5.629       5.406       5.133       4.835       4.533       4.288       4.010       3.501       2.997    
        2.593       2.102       1.677       1.327      0.9407      0.6038      0.3662      0.2116      0.1059       0.000    
  20    10.00       9.920       9.797       9.645       9.540       9.467       9.377       9.259       9.123       8.981    
        8.800       8.579       8.292       8.032       7.822       7.540       7.238       7.079       6.946       6.797    
        6.644       6.486       6.334       6.231       6.179       6.136       6.081       6.025       5.942       5.846    
        5.732       5.580       5.353       5.096       4.820       4.554       4.291       3.863       3.329       2.901    
        2.456       1.981       1.605       1.255      0.8948      0.5426      0.3180      0.2134      0.1078       0.000    
  21    10.00       9.874       9.748       9.625       9.515       9.433       9.336       9.188       9.051       8.915    
        8.683       8.409       8.141       7.926       7.699       7.426       7.207       7.068       6.917       6.755    
        6.568       6.391       6.256       6.152       6.073       6.007       5.963       5.916       5.835       5.759    
        5.665       5.510       5.305       5.070       4.815       4.554       4.183       3.749       3.281       2.772    
        2.325       1.880       1.555       1.234      0.7771      0.4577      0.3257      0.2375      0.1141       0.000    
  22    10.00       9.856       9.708       9.589       9.497       9.399       9.258       9.113       8.993       8.815    
        8.573       8.287       8.056       7.876       7.627       7.374       7.188       7.045       6.894       6.700    
        6.487       6.307       6.136       5.982       5.879       5.832       5.801       5.747       5.708       5.658    
        5.573       5.438       5.271       5.045       4.795       4.538       4.146       3.703       3.154       2.652    
        2.266       1.862       1.502       1.026      0.6381      0.4583      0.3443      0.2288      9.0787E-02   0.000    
  23    10.00       9.825       9.682       9.583       9.483       9.339       9.182       9.070       8.919       8.735    
        8.490       8.235       8.056       7.828       7.559       7.337       7.179       7.049       6.880       6.648    
        6.420       6.210       5.985       5.716       5.476       5.436       5.510       5.541       5.568       5.554    
        5.494       5.378       5.220       5.030       4.784       4.506       4.134       3.580       3.002       2.589    
        2.219       1.760       1.246      0.8355      0.6213      0.4696      0.3432      0.2175      0.1012       0.000    
  24    10.00       9.802       9.699       9.586       9.446       9.290       9.166       9.044       8.897       8.685    
        8.458       8.259       8.061       7.786       7.499       7.323       7.194       7.059       6.856       6.623    
        6.397       6.157       5.815       5.197       4.261       4.600       5.039       5.303       5.424       5.451    
        5.415       5.317       5.183       4.984       4.745       4.462       3.999       3.415       2.922       2.485    
        2.037       1.555       1.101      0.7951      0.6169      0.4660      0.3347      0.2535      0.1395       0.000    
  25    10.00       9.828       9.719       9.583       9.437       9.297       9.170       9.054       8.873       8.662    
        8.471       8.279       8.035       7.731       7.509       7.350       7.207       7.049       6.861       6.646    
        6.405       6.168       5.549       4.222       1.170       3.684       4.631       5.089       5.306       5.374    
        5.352       5.276       5.134       4.901       4.648       4.313       3.840       3.280       2.833       2.360    
        1.844       1.391       1.021      0.7850      0.6408      0.5005      0.3655      0.2693      0.1757       0.000    
  26    10.00       9.853       9.751       9.605       9.454       9.331       9.199       9.051       8.866       8.700    
        8.534       8.276       7.967       7.708       7.547       7.406       7.237       7.034       6.834       6.650    
        6.466       6.211       5.651       4.704       3.697       4.225       4.778       5.105       5.283       5.341    
        5.304       5.225       5.059       4.829       4.587       4.224       3.610       3.100       2.728       2.154    
        1.598       1.225       1.009      0.8507      0.6976      0.5423      0.4018      0.2942      0.1756       0.000    
  27    10.00       9.886       9.762       9.638       9.503       9.360       9.228       9.085       8.917       8.756    
        8.531       8.224       7.955       7.746       7.605       7.446       7.225       7.001       6.840       6.697    
        6.546       6.289       5.878       5.371       4.835       4.876       5.073       5.237       5.331       5.332    
        5.272       5.182       5.022       4.791       4.470       3.916       3.351       2.959       2.397       1.843    
        1.449       1.207       1.051      0.9165      0.7753      0.5963      0.4290      0.3211      0.2158       0.000    
  28    10.00       9.897       9.792       9.673       9.551       9.415       9.278       9.132       8.972       8.784    
        8.504       8.224       7.989       7.788       7.643       7.480       7.292       7.078       6.871       6.732    
        6.600       6.420       6.154       5.793       5.470       5.327       5.340       5.402       5.397       5.347    
        5.251       5.140       4.954       4.646       4.191       3.632       3.169       2.646       2.101       1.738    
        1.454       1.256       1.101      0.9677      0.8226      0.6512      0.4858      0.3649      0.2224       0.000    
  29    10.00       9.902       9.802       9.714       9.595       9.471       9.338       9.190       9.019       8.764    
        8.487       8.239       8.014       7.848       7.678       7.501       7.331       7.161       6.968       6.795    
        6.657       6.508       6.330       6.116       5.829       5.667       5.599       5.553       5.490       5.355    
        5.210       5.020       4.803       4.399       3.886       3.409       2.946       2.431       2.022       1.762    
        1.531       1.313       1.144       1.014      0.8725      0.6969      0.5266      0.3853      0.2245       0.000    
  30    10.00       9.910       9.828       9.750       9.646       9.531       9.412       9.246       9.029       8.767    
        8.480       8.225       8.036       7.868       7.698       7.529       7.386       7.245       7.075       6.891    
        6.732       6.597       6.445       6.291       6.100       5.916       5.825       5.695       5.555       5.348    
        5.105       4.818       4.539       4.139       3.748       3.312       2.843       2.378       2.083       1.846    
        1.585       1.372       1.209       1.054      0.8947      0.7392      0.5607      0.4013      0.2424       0.000    
  31    10.00       9.925       9.854       9.780       9.705       9.613       9.481       9.282       9.029       8.755    
        8.476       8.238       8.056       7.882       7.730       7.573       7.427       7.319       7.152       6.978    
        6.827       6.685       6.549       6.391       6.243       6.099       5.958       5.798       5.570       5.286    
        4.938       4.613       4.345       4.054       3.678       3.234       2.795       2.418       2.182       1.969    
        1.698       1.452       1.262       1.098      0.9398      0.7752      0.5964      0.4284      0.2357       0.000    
  32    10.00       9.937       9.882       9.817       9.743       9.660       9.527       9.298       9.058       8.807    
        8.509       8.259       8.076       7.911       7.754       7.619       7.492       7.355       7.217       7.054    
        6.889       6.736       6.587       6.423       6.297       6.200       6.044       5.814       5.490       5.131    
        4.798       4.519       4.264       3.999       3.646       3.253       2.886       2.559       2.307       2.066    
        1.814       1.557       1.354       1.163      0.9820      0.8334      0.6504      0.4284      0.2127       0.000    
  33    10.00       9.945       9.900       9.848       9.776       9.679       9.508       9.286       9.084       8.847    
        8.554       8.303       8.111       7.926       7.776       7.663       7.550       7.412       7.261       7.098    
        6.927       6.758       6.577       6.430       6.334       6.235       6.010       5.692       5.369       5.059    
        4.758       4.522       4.279       3.960       3.634       3.284       2.973       2.709       2.445       2.182    
        1.946       1.703       1.481       1.280       1.080      0.9036      0.6982      0.4367      0.2057       0.000    
  34    10.00       9.950       9.920       9.874       9.783       9.649       9.482       9.318       9.109       8.849    
        8.586       8.337       8.126       7.937       7.807       7.719       7.595       7.450       7.276       7.116    
        6.949       6.746       6.571       6.440       6.336       6.174       5.901       5.632       5.322       4.990    
        4.744       4.553       4.326       4.016       3.693       3.378       3.092       2.855       2.585       2.322    
        2.097       1.874       1.639       1.434       1.221       1.014      0.7532      0.4837      0.2550       0.000    
  35    10.00       9.959       9.924       9.865       9.751       9.608       9.485       9.344       9.148       8.865    
        8.581       8.345       8.128       7.968       7.861       7.761       7.623       7.455       7.278       7.097    
        6.907       6.716       6.536       6.410       6.293       6.138       5.871       5.560       5.235       4.931    
        4.756       4.567       4.331       4.096       3.824       3.494       3.210       3.020       2.749       2.456    
        2.246       2.023       1.799       1.598       1.361       1.130      0.8675      0.5789      0.2893       0.000    
  36    10.00       9.956       9.906       9.838       9.725       9.588       9.478       9.343       9.144       8.875    
        8.575       8.315       8.153       8.031       7.925       7.793       7.621       7.449       7.248       6.995    
        6.795       6.636       6.486       6.375       6.267       6.080       5.789       5.477       5.153       4.898    
        4.739       4.578       4.366       4.148       3.918       3.619       3.338       3.132       2.895       2.581    
        2.346       2.120       1.892       1.726       1.498       1.242      0.9802      0.6789      0.3453       0.000    
  37    10.00       9.941       9.885       9.812       9.696       9.571       9.445       9.314       9.129       8.837    
        8.530       8.318       8.219       8.099       7.955       7.814       7.605       7.386       7.114       6.851    
        6.719       6.594       6.449       6.327       6.195       5.964       5.700       5.369       5.096       4.920    
        4.767       4.596       4.381       4.193       3.955       3.671       3.451       3.251       2.989       2.676    
        2.395       2.175       1.994       1.809       1.592       1.355       1.104      0.7661      0.4150       0.000    
  38    10.00       9.934       9.861       9.782       9.675       9.551       9.410       9.272       9.073       8.801    
        8.566       8.396       8.269       8.153       7.983       7.752       7.503       7.217       6.919       6.765    
        6.663       6.501       6.351       6.252       6.096       5.867       5.552       5.265       5.118       4.980    
        4.810       4.619       4.416       4.226       3.993       3.736       3.540       3.336       3.024       2.698    
        2.454       2.251       2.067       1.882       1.689       1.461       1.201      0.8765      0.4547       0.000    
  39    10.00       9.916       9.841       9.762       9.656       9.516       9.363       9.216       9.034       8.814    
        8.628       8.500       8.353       8.179       7.906       7.594       7.278       6.969       6.797       6.708    
        6.552       6.374       6.267       6.172       6.021       5.757       5.461       5.290       5.163       5.016    
        4.833       4.654       4.450       4.248       4.051       3.840       3.614       3.377       3.057       2.736    
        2.480       2.276       2.133       1.986       1.777       1.543       1.282      0.9286      0.4547       0.000    
  40    10.00       9.901       9.828       9.748       9.640       9.492       9.335       9.185       9.031       8.846    
        8.691       8.577       8.380       8.084       7.727       7.376       7.059       6.856       6.750       6.627    
        6.451       6.301       6.210       6.084       5.911       5.696       5.512       5.344       5.195       5.056    
        4.887       4.689       4.482       4.294       4.114       3.900       3.657       3.420       3.072       2.722    
        2.491       2.322       2.173       2.047       1.835       1.575       1.335      0.9648      0.4763       0.000    
  41    10.00       9.908       9.822       9.733       9.612       9.478       9.339       9.205       9.055       8.889    
        8.741       8.593       8.312       7.926       7.533       7.217       6.974       6.807       6.695       6.550    
        6.369       6.244       6.134       6.001       5.853       5.706       5.573       5.413       5.234       5.075    
        4.922       4.734       4.527       4.356       4.169       3.960       3.712       3.382       2.997       2.728    
        2.541       2.365       2.228       2.069       1.846       1.588       1.376       1.024      0.5243       0.000    
  42    10.00       9.910       9.814       9.731       9.626       9.500       9.362       9.211       9.076       8.946    
        8.761       8.486       8.130       7.731       7.380       7.140       6.931       6.775       6.639       6.465    
        6.300       6.182       6.069       5.976       5.856       5.750       5.627       5.441       5.250       5.109    
        4.976       4.774       4.552       4.392       4.232       3.998       3.679       3.284       2.943       2.738    
        2.589       2.440       2.271       2.064       1.832       1.625       1.411       1.066      0.5485       0.000    
  43    10.00       9.911       9.822       9.737       9.653       9.541       9.401       9.251       9.102       8.910    
        8.635       8.317       7.953       7.571       7.302       7.102       6.905       6.739       6.574       6.401    
        6.249       6.138       6.057       5.986       5.882       5.768       5.646       5.465       5.295       5.181    
        5.013       4.790       4.583       4.425       4.241       3.955       3.581       3.200       2.963       2.802    
        2.644       2.483       2.276       2.053       1.842       1.641       1.449       1.063      0.4788       0.000    
  44    10.00       9.905       9.824       9.750       9.657       9.570       9.451       9.265       9.061       8.789    
        8.510       8.176       7.779       7.503       7.297       7.075       6.858       6.666       6.487       6.333    
        6.226       6.140       6.066       5.993       5.903       5.787       5.644       5.501       5.371       5.227    
        5.065       4.864       4.630       4.407       4.191       3.899       3.509       3.181       2.991       2.835    
        2.684       2.506       2.299       2.100       1.879       1.656       1.405      0.9101      0.4022       0.000    
  45    10.00       9.905       9.838       9.753       9.665       9.587       9.410       9.197       8.953       8.686    
        8.452       8.051       7.683       7.478       7.265       7.022       6.776       6.579       6.423       6.314    
        6.238       6.163       6.085       5.999       5.901       5.795       5.676       5.556       5.449       5.301    
        5.107       4.892       4.655       4.386       4.141       3.824       3.458       3.200       3.044       2.887    
        2.691       2.486       2.304       2.124       1.931       1.692       1.267      0.7628      0.3863       0.000    
  46    10.00       9.921       9.850       9.759       9.662       9.513       9.326       9.149       8.926       8.665    
        8.326       7.958       7.663       7.406       7.189       6.948       6.702       6.549       6.433       6.333    
        6.263       6.194       6.101       5.998       5.902       5.808       5.711       5.604       5.497       5.360    
        5.180       4.956       4.692       4.388       4.047       3.707       3.441       3.265       3.092       2.912    
        2.686       2.472       2.291       2.147       1.939       1.605       1.136      0.7184      0.3650       0.000    
  47    10.00       9.939       9.872       9.777       9.608       9.428       9.268       9.116       8.916       8.590    
        8.225       7.883       7.599       7.383       7.151       6.884       6.672       6.536       6.444       6.362    
        6.287       6.206       6.114       6.012       5.918       5.837       5.751       5.646       5.522       5.387    
        5.227       5.028       4.687       4.284       3.964       3.714       3.483       3.332       3.173       2.923    
        2.654       2.429       2.261       2.143       1.883       1.485       1.054      0.6912      0.3548       0.000    
  48    10.00       9.946       9.875       9.733       9.562       9.413       9.242       9.088       8.875       8.530    
        8.133       7.823       7.593       7.336       7.065       6.826       6.667       6.534       6.446       6.385    
        6.309       6.212       6.111       6.023       5.947       5.879       5.797       5.680       5.533       5.376    
        5.211       4.982       4.630       4.300       4.020       3.772       3.556       3.385       3.180       2.880    
        2.596       2.415       2.275       2.055       1.707       1.351       1.006      0.6961      0.3745       0.000    
  49    10.00       9.943       9.842       9.714       9.574       9.401       9.229       9.056       8.792       8.427    
        8.085       7.795       7.517       7.274       7.065       6.840       6.635       6.515       6.457       6.398    
        6.327       6.216       6.105       6.032       5.970       5.916       5.824       5.682       5.516       5.365    
        5.192       4.913       4.615       4.394       4.138       3.847       3.585       3.379       3.142       2.823    
        2.593       2.435       2.226       1.894       1.585       1.294      0.9949      0.6960      0.3732       0.000    
  50    10.00       9.935       9.830       9.700       9.573       9.411       9.218       9.003       8.724       8.436    
        8.078       7.715       7.458       7.264       7.088       6.834       6.607       6.517       6.465       6.406    
        6.335       6.221       6.107       6.036       5.983       5.933       5.828       5.666       5.498       5.355    
        5.177       4.890       4.660       4.461       4.193       3.904       3.630       3.347       3.024       2.757    
        2.638       2.459       2.136       1.803       1.574       1.292       1.009      0.6816      0.3039       0.000    

 HEAD WILL BE SAVED ON UNIT   51 AT END OF TIME STEP  14, STRESS PERIOD    2

 DRAWDOWN WILL BE SAVED ON UNIT   52 AT END OF TIME STEP  14, STRESS PERIOD    2
1
  VOLUMETRIC BUDGET FOR ENTIRE MODEL AT END OF TIME STEP 14 IN STRESS PERIOD   2
  ------------------------------------------------------------------------------

     CUMULATIVE VOLUMES      L**3       RATES FOR THIS TIME STEP      L**3/T
     ------------------                 ------------------------

           IN:                                      IN:
           ---                                      ---
             STORAGE =        6999.1328               STORAGE =         499.6899
       CONSTANT HEAD =        8957.1895         CONSTANT HEAD =         597.3923
               WELLS =           0.0000                 WELLS =           0.0000

            TOTAL IN =       15956.3223              TOTAL IN =        1097.0823

          OUT:                                     OUT:
          ----                                     ----
             STORAGE =       9.4320E-03               STORAGE =       8.9468E-07
       CONSTANT HEAD =        8956.3125         CONSTANT HEAD =         597.0818
               WELLS =        7000.0000                 WELLS =         500.0000

           TOTAL OUT =       15956.3223             TOTAL OUT =        1097.0819

            IN - OUT =           0.0000              IN - OUT =       3.6621E-04

 PERCENT DISCREPANCY =           0.00     PERCENT DISCREPANCY =           0.00






          TIME SUMMARY AT END OF TIME STEP  14 IN STRESS PERIOD    2
                    SECONDS     MINUTES      HOURS       DAYS        YEARS
                    -----------------------------------------------------------
   TIME STEP LENGTH  86400.      1440.0      24.000      1.0000     2.73785E-03
 STRESS PERIOD TIME 1.20960E+06  20160.      336.00      14.000     3.83299E-02
         TOTAL TIME 1.29600E+06  21600.      360.00      15.000     4.10678E-02
1
 
 SOLVING FOR HEAD 

 OUTPUT CONTROL FOR STRESS PERIOD    2   TIME STEP  15
    SAVE HEAD FOR ALL LAYERS
    SAVE DRAWDOWN FOR ALL LAYERS
    SAVE BUDGET
    PRINT HEAD FOR ALL LAYERS
    PRINT BUDGET
 UBDSV1 SAVING "         STORAGE" ON UNIT  53 AT TIME STEP 15, STRESS PERIOD   2
 UBDSV2 SAVING "   CONSTANT HEAD" ON UNIT  53 AT TIME STEP 15, STRESS PERIOD   2
 UBDSV1 SAVING "FLOW RIGHT FACE " ON UNIT  53 AT TIME STEP 15, STRESS PERIOD   2
 UBDSV1 SAVING "FLOW FRONT FACE " ON UNIT  53 AT TIME STEP 15, STRESS PERIOD   2
1
              HEAD IN LAYER   1 AT END OF TIME STEP  15 IN STRESS PERIOD    2
  ---------------------------------------------------------------------------

            1           2           3           4           5           6           7           8           9          10
           11          12          13          14          15          16          17          18          19          20
           21          22          23          24          25          26          27          28          29          30
           31          32          33          34          35          36          37          38          39          40
           41          42          43          44          45          46          47          48          49          50
 ........................................................................................................................
   1    10.00       9.959       9.902       9.836       9.772       9.699       9.631       9.563       9.477       9.394    
        9.329       9.265       9.200       9.137       9.034       8.910       8.772       8.663       8.606       8.540    
        8.461       8.397       8.333       8.259       8.159       7.962       7.739       7.583       7.429       7.284    
        7.096       6.794       6.409       5.982       5.539       5.069       4.605       4.218       3.713       3.165    
        2.715       2.285       1.807       1.408       1.161      0.9524      0.7868      0.6669      0.4476       0.000    
   2    10.00       9.959       9.906       9.840       9.775       9.711       9.643       9.554       9.460       9.392    
        9.336       9.281       9.227       9.148       9.030       8.900       8.771       8.663       8.605       8.531    
        8.451       8.403       8.352       8.275       8.149       7.956       7.754       7.592       7.437       7.295    
        7.085       6.769       6.366       5.880       5.408       4.954       4.551       4.177       3.664       3.134    
        2.682       2.198       1.763       1.449       1.217       1.037      0.8317      0.6491      0.3621       0.000    
   3    10.00       9.953       9.901       9.842       9.785       9.720       9.633       9.539       9.473       9.411    
        9.349       9.299       9.251       9.175       9.054       8.894       8.753       8.666       8.598       8.523    
        8.458       8.408       8.355       8.253       8.117       7.946       7.770       7.643       7.462       7.277    
        7.013       6.640       6.181       5.711       5.292       4.867       4.472       4.072       3.540       3.049    
        2.661       2.213       1.814       1.526       1.295       1.109      0.8654      0.5802      0.2630       0.000    
   4    10.00       9.953       9.902       9.845       9.780       9.705       9.615       9.544       9.486       9.423    
        9.368       9.327       9.273       9.187       9.070       8.900       8.753       8.672       8.595       8.528    
        8.459       8.398       8.331       8.225       8.091       7.938       7.780       7.624       7.464       7.254    
        6.924       6.433       5.948       5.591       5.239       4.798       4.324       3.855       3.430       3.057    
        2.693       2.277       1.900       1.639       1.379       1.142      0.8410      0.5220      0.2500       0.000    
   5    10.00       9.950       9.898       9.834       9.769       9.699       9.618       9.556       9.497       9.438    
        9.390       9.350       9.279       9.179       9.051       8.897       8.772       8.683       8.608       8.519    
        8.437       8.370       8.290       8.186       8.066       7.911       7.754       7.610       7.448       7.196    
        6.726       6.182       5.793       5.512       5.162       4.684       4.193       3.766       3.445       3.107    
        2.749       2.364       1.989       1.746       1.467       1.124      0.7657      0.4656      0.2341       0.000    
   6    10.00       9.943       9.882       9.828       9.769       9.693       9.625       9.572       9.510       9.454    
        9.408       9.360       9.271       9.159       9.047       8.918       8.793       8.690       8.592       8.490    
        8.408       8.332       8.262       8.168       8.015       7.864       7.736       7.590       7.368       6.990    
        6.477       5.986       5.661       5.416       5.099       4.625       4.134       3.769       3.498       3.190    
        2.859       2.519       2.134       1.808       1.438       1.061      0.6765      0.4019      0.2212       0.000    
   7    10.00       9.932       9.873       9.823       9.762       9.698       9.637       9.587       9.530       9.475    
        9.420       9.346       9.250       9.144       9.038       8.938       8.807       8.670       8.558       8.457    
        8.372       8.298       8.237       8.122       7.967       7.838       7.709       7.518       7.170       6.692    
        6.200       5.800       5.575       5.354       4.986       4.543       4.210       3.852       3.552       3.349    
        3.033       2.667       2.213       1.748       1.334      0.9218      0.5831      0.4050      0.2085       0.000    
   8    10.00       9.931       9.878       9.821       9.760       9.704       9.651       9.600       9.547       9.495    
        9.422       9.329       9.234       9.134       9.037       8.925       8.764       8.620       8.529       8.433    
        8.338       8.273       8.187       8.066       7.932       7.797       7.585       7.292       6.863       6.444    
        6.068       5.750       5.540       5.285       4.894       4.524       4.223       3.957       3.720       3.483    
        3.174       2.712       2.156       1.659       1.228      0.8635      0.6175      0.3969      0.1902       0.000    
   9    10.00       9.942       9.877       9.816       9.770       9.723       9.670       9.616       9.558       9.503    
        9.419       9.314       9.211       9.112       9.009       8.878       8.724       8.592       8.493       8.396    
        8.311       8.230       8.115       8.001       7.880       7.719       7.421       7.029       6.629       6.321    
        6.009       5.736       5.502       5.182       4.816       4.503       4.271       4.070       3.856       3.596    
        3.223       2.720       2.152       1.658       1.238      0.8830      0.6233      0.4005      0.2047       0.000    
  10    10.00       9.940       9.872       9.821       9.779       9.734       9.686       9.640       9.573       9.492    
        9.392       9.282       9.185       9.093       8.987       8.828       8.667       8.553       8.461       8.370    
        8.290       8.182       8.055       7.929       7.792       7.569       7.197       6.789       6.440       6.191    
        5.984       5.744       5.465       5.137       4.788       4.517       4.333       4.157       3.925       3.625    
        3.200       2.678       2.158       1.736       1.341      0.9723      0.6430      0.4254      0.2286       0.000    
  11    10.00       9.927       9.872       9.831       9.789       9.750       9.707       9.643       9.553       9.462    
        9.362       9.255       9.166       9.057       8.917       8.766       8.633       8.532       8.448       8.356    
        8.242       8.107       7.942       7.799       7.582       7.277       6.958       6.646       6.342       6.146    
        5.983       5.688       5.376       5.103       4.828       4.609       4.414       4.188       3.902       3.541    
        3.141       2.737       2.236       1.819       1.443       1.076      0.7226      0.4178      0.1752       0.000    
  12    10.00       9.929       9.879       9.835       9.800       9.760       9.710       9.621       9.518       9.431    
        9.339       9.229       9.122       8.995       8.872       8.735       8.607       8.519       8.430       8.307    
        8.129       7.934       7.743       7.549       7.265       7.031       6.833       6.532       6.270       6.105    
        5.916       5.651       5.381       5.121       4.911       4.702       4.451       4.176       3.828       3.465    
        3.125       2.758       2.274       1.863       1.509       1.125      0.7607      0.3943      0.1308       0.000    
  13    10.00       9.943       9.895       9.849       9.807       9.760       9.681       9.581       9.484       9.396    
        9.294       9.188       9.079       8.949       8.814       8.686       8.594       8.489       8.375       8.151    
        7.891       7.686       7.475       7.223       7.000       6.874       6.656       6.390       6.232       6.075    
        5.845       5.602       5.385       5.176       4.990       4.794       4.493       4.119       3.781       3.437    
        3.111       2.731       2.212       1.830       1.525       1.116      0.6997      0.3407      0.1043       0.000    
  14    10.00       9.956       9.915       9.866       9.808       9.732       9.631       9.531       9.444       9.349    
        9.246       9.148       9.026       8.892       8.776       8.665       8.533       8.405       8.193       7.868    
        7.618       7.417       7.142       6.938       6.821       6.703       6.490       6.314       6.168       6.008    
        5.801       5.606       5.440       5.246       5.041       4.839       4.501       4.091       3.741       3.386    
        3.051       2.578       2.085       1.784       1.438       1.071      0.7017      0.3159      8.9962E-02   0.000    
  15    10.00       9.965       9.922       9.868       9.800       9.689       9.567       9.480       9.400       9.307    
        9.227       9.128       8.975       8.826       8.721       8.561       8.400       8.265       7.952       7.598    
        7.367       7.104       6.863       6.774       6.700       6.562       6.378       6.212       6.092       5.960    
        5.786       5.635       5.488       5.312       5.104       4.857       4.464       4.012       3.644       3.318    
        2.959       2.482       2.091       1.715       1.304      0.9802      0.6277      0.2900      9.8100E-02   0.000    
  16    10.00       9.971       9.925       9.859       9.760       9.629       9.521       9.451       9.381       9.289    
        9.194       9.053       8.869       8.727       8.584       8.404       8.296       8.039       7.603       7.287    
        7.075       6.841       6.742       6.681       6.565       6.393       6.245       6.149       6.067       5.946    
        5.793       5.650       5.526       5.350       5.099       4.773       4.330       3.939       3.644       3.297    
        2.879       2.409       1.989       1.582       1.228      0.8690      0.5637      0.2932      0.1046       0.000    
  17    10.00       9.967       9.912       9.824       9.712       9.578       9.483       9.423       9.341       9.245    
        9.082       8.891       8.740       8.600       8.420       8.244       8.029       7.625       7.249       7.041    
        6.868       6.729       6.657       6.539       6.366       6.241       6.186       6.135       6.052       5.922    
        5.785       5.655       5.523       5.354       5.011       4.587       4.243       3.982       3.692       3.272    
        2.743       2.284       1.895       1.512       1.102      0.7255      0.4809      0.2665      0.1110       0.000    
  18    10.00       9.954       9.884       9.782       9.636       9.524       9.457       9.370       9.273       9.134    
        8.932       8.776       8.636       8.431       8.201       7.963       7.660       7.300       7.061       6.894    
        6.757       6.634       6.522       6.367       6.240       6.191       6.162       6.119       6.029       5.904    
        5.780       5.646       5.479       5.223       4.875       4.528       4.250       4.034       3.671       3.158    
        2.648       2.167       1.776       1.417       1.023      0.6697      0.4068      0.2228      0.1040       0.000    
  19    10.00       9.938       9.858       9.710       9.566       9.501       9.419       9.308       9.192       9.036    
        8.860       8.707       8.491       8.202       7.963       7.726       7.396       7.091       6.933       6.823    
        6.678       6.526       6.400       6.265       6.191       6.161       6.128       6.072       5.981       5.875    
        5.757       5.611       5.391       5.121       4.827       4.527       4.284       4.007       3.499       2.996    
        2.592       2.101       1.677       1.327      0.9407      0.6038      0.3662      0.2116      0.1059       0.000    
  20    10.00       9.920       9.797       9.645       9.540       9.467       9.376       9.259       9.122       8.979    
        8.797       8.575       8.285       8.020       7.806       7.520       7.213       7.052       6.917       6.767    
        6.612       6.454       6.301       6.198       6.147       6.104       6.049       5.993       5.912       5.818    
        5.707       5.560       5.336       5.084       4.811       4.548       4.287       3.861       3.327       2.900    
        2.456       1.981       1.605       1.255      0.8948      0.5426      0.3180      0.2134      0.1078       0.000    
  21    10.00       9.874       9.748       9.624       9.515       9.433       9.335       9.187       9.050       8.913    
        8.680       8.402       8.131       7.912       7.682       7.404       7.182       7.041       6.887       6.724    
        6.536       6.357       6.222       6.118       6.039       5.972       5.929       5.882       5.803       5.729    
        5.638       5.488       5.286       5.057       4.805       4.546       4.178       3.746       3.280       2.772    
        2.325       1.880       1.555       1.234      0.7771      0.4577      0.3256      0.2375      0.1141       0.000    
  22    10.00       9.856       9.708       9.589       9.497       9.399       9.257       9.112       8.991       8.812    
        8.568       8.280       8.044       7.862       7.609       7.351       7.162       7.017       6.864       6.668    
        6.452       6.272       6.100       5.945       5.843       5.795       5.764       5.710       5.673       5.625    
        5.544       5.413       5.251       5.030       4.784       4.530       4.141       3.700       3.152       2.652    
        2.265       1.862       1.501       1.026      0.6381      0.4583      0.3443      0.2288      9.0785E-02   0.000    
  23    10.00       9.825       9.681       9.583       9.483       9.339       9.181       9.068       8.917       8.732    
        8.484       8.226       8.044       7.813       7.539       7.313       7.153       7.020       6.849       6.615    
        6.384       6.173       5.948       5.677       5.436       5.396       5.470       5.502       5.531       5.519    
        5.463       5.352       5.199       5.014       4.772       4.498       4.129       3.578       3.001       2.589    
        2.219       1.760       1.246      0.8355      0.6212      0.4696      0.3432      0.2175      0.1012       0.000    
  24    10.00       9.802       9.698       9.586       9.445       9.289       9.165       9.042       8.894       8.681    
        8.452       8.251       8.049       7.770       7.478       7.299       7.168       7.031       6.825       6.589    
        6.361       6.120       5.776       5.156       4.216       4.554       4.995       5.260       5.384       5.414    
        5.383       5.290       5.161       4.967       4.733       4.454       3.995       3.413       2.921       2.484    
        2.037       1.554       1.101      0.7951      0.6169      0.4660      0.3347      0.2535      0.1395       0.000    
  25    10.00       9.828       9.719       9.583       9.437       9.297       9.169       9.052       8.871       8.658    
        8.465       8.270       8.023       7.715       7.488       7.326       7.181       7.021       6.830       6.613    
        6.369       6.130       5.508       4.176       1.119       3.635       4.583       5.044       5.264       5.337    
        5.320       5.249       5.112       4.885       4.637       4.305       3.836       3.278       2.832       2.359    
        1.844       1.391       1.021      0.7850      0.6407      0.5005      0.3655      0.2693      0.1757       0.000    
  26    10.00       9.853       9.751       9.605       9.453       9.330       9.198       9.050       8.863       8.696    
        8.529       8.268       7.955       7.692       7.527       7.383       7.212       7.005       6.802       6.617    
        6.431       6.173       5.609       4.658       3.647       4.174       4.728       5.058       5.240       5.304    
        5.272       5.198       5.038       4.814       4.576       4.216       3.607       3.098       2.727       2.154    
        1.598       1.225       1.009      0.8507      0.6975      0.5423      0.4018      0.2942      0.1756       0.000    
  27    10.00       9.886       9.762       9.638       9.502       9.359       9.227       9.083       8.915       8.753    
        8.526       8.215       7.943       7.730       7.587       7.425       7.200       6.973       6.809       6.664    
        6.512       6.252       5.837       5.326       4.786       4.826       5.023       5.190       5.289       5.295    
        5.242       5.156       5.002       4.776       4.460       3.911       3.349       2.958       2.396       1.843    
        1.449       1.207       1.051      0.9165      0.7753      0.5963      0.4290      0.3211      0.2158       0.000    
  28    10.00       9.897       9.792       9.673       9.550       9.415       9.277       9.130       8.970       8.781    
        8.499       8.216       7.978       7.774       7.626       7.460       7.269       7.051       6.841       6.700    
        6.566       6.383       6.115       5.750       5.423       5.279       5.292       5.357       5.356       5.312    
        5.222       5.115       4.936       4.634       4.184       3.629       3.167       2.646       2.101       1.738    
        1.454       1.256       1.101      0.9677      0.8226      0.6512      0.4858      0.3649      0.2224       0.000    
  29    10.00       9.902       9.802       9.714       9.595       9.470       9.337       9.189       9.017       8.761    
        8.482       8.232       8.004       7.835       7.663       7.483       7.310       7.137       6.941       6.764    
        6.624       6.473       6.293       6.076       5.785       5.623       5.555       5.511       5.452       5.324    
        5.184       5.001       4.789       4.391       3.882       3.407       2.945       2.431       2.022       1.762    
        1.531       1.313       1.144       1.014      0.8725      0.6969      0.5266      0.3853      0.2245       0.000    
  30    10.00       9.910       9.828       9.750       9.646       9.531       9.411       9.245       9.027       8.764    
        8.475       8.218       8.027       7.857       7.684       7.513       7.367       7.224       7.050       6.863    
        6.701       6.564       6.411       6.255       6.062       5.878       5.788       5.659       5.524       5.323    
        5.086       4.805       4.530       4.134       3.745       3.311       2.843       2.378       2.083       1.846    
        1.585       1.372       1.209       1.054      0.8947      0.7392      0.5607      0.4013      0.2424       0.000    
  31    10.00       9.925       9.854       9.780       9.705       9.613       9.481       9.281       9.027       8.753    
        8.472       8.231       8.048       7.872       7.718       7.558       7.410       7.300       7.130       6.953    
        6.800       6.656       6.519       6.361       6.214       6.069       5.928       5.769       5.546       5.267    
        4.926       4.605       4.339       4.050       3.675       3.233       2.794       2.418       2.182       1.969    
        1.698       1.452       1.262       1.098      0.9397      0.7752      0.5964      0.4284      0.2357       0.000    
  32    10.00       9.937       9.882       9.817       9.743       9.660       9.526       9.298       9.057       8.804    
        8.505       8.254       8.069       7.902       7.743       7.607       7.478       7.339       7.199       7.033    
        6.866       6.711       6.562       6.399       6.273       6.175       6.019       5.792       5.474       5.120    
        4.791       4.514       4.260       3.996       3.644       3.252       2.886       2.559       2.307       2.066    
        1.814       1.557       1.354       1.163      0.9820      0.8334      0.6504      0.4284      0.2127       0.000    
  33    10.00       9.945       9.900       9.848       9.776       9.679       9.508       9.285       9.083       8.846    
        8.551       8.299       8.105       7.919       7.767       7.653       7.538       7.399       7.246       7.081    
        6.908       6.738       6.557       6.409       6.313       6.214       5.991       5.679       5.359       5.052    
        4.754       4.519       4.276       3.958       3.633       3.283       2.972       2.709       2.445       2.182    
        1.946       1.703       1.481       1.280       1.080      0.9036      0.6982      0.4367      0.2057       0.000    
  34    10.00       9.950       9.920       9.874       9.783       9.649       9.482       9.317       9.108       8.848    
        8.584       8.334       8.122       7.932       7.799       7.710       7.586       7.439       7.263       7.103    
        6.935       6.730       6.554       6.423       6.319       6.159       5.890       5.623       5.315       4.986    
        4.741       4.551       4.324       4.015       3.692       3.377       3.092       2.855       2.585       2.322    
        2.097       1.874       1.639       1.434       1.221       1.014      0.7532      0.4837      0.2550       0.000    
  35    10.00       9.959       9.924       9.865       9.751       9.608       9.485       9.344       9.148       8.864    
        8.580       8.342       8.124       7.963       7.855       7.754       7.615       7.446       7.269       7.086    
        6.897       6.705       6.525       6.399       6.282       6.128       5.863       5.554       5.231       4.929    
        4.754       4.566       4.330       4.095       3.824       3.494       3.210       3.020       2.749       2.456    
        2.246       2.023       1.799       1.598       1.361       1.130      0.8675      0.5789      0.2893       0.000    
  36    10.00       9.956       9.906       9.838       9.725       9.588       9.477       9.343       9.144       8.874    
        8.574       8.313       8.150       8.027       7.921       7.788       7.616       7.442       7.241       6.988    
        6.788       6.629       6.478       6.367       6.259       6.074       5.785       5.474       5.151       4.897    
        4.738       4.577       4.365       4.147       3.917       3.619       3.338       3.132       2.895       2.581    
        2.346       2.120       1.892       1.726       1.498       1.242      0.9802      0.6789      0.3453       0.000    
  37    10.00       9.941       9.885       9.812       9.696       9.571       9.445       9.313       9.129       8.836    
        8.529       8.316       8.217       8.096       7.952       7.810       7.601       7.381       7.110       6.847    
        6.714       6.589       6.444       6.321       6.190       5.960       5.697       5.367       5.095       4.919    
        4.767       4.596       4.381       4.193       3.955       3.671       3.450       3.251       2.989       2.676    
        2.395       2.175       1.994       1.809       1.592       1.355       1.104      0.7661      0.4150       0.000    
  38    10.00       9.934       9.861       9.782       9.674       9.551       9.410       9.272       9.073       8.800    
        8.565       8.395       8.267       8.151       7.981       7.749       7.500       7.214       6.917       6.762    
        6.660       6.498       6.348       6.248       6.093       5.865       5.550       5.264       5.118       4.979    
        4.809       4.619       4.416       4.226       3.993       3.736       3.540       3.336       3.024       2.698    
        2.454       2.251       2.067       1.882       1.689       1.461       1.201      0.8765      0.4547       0.000    
  39    10.00       9.916       9.841       9.762       9.656       9.516       9.363       9.216       9.034       8.813    
        8.627       8.499       8.351       8.177       7.905       7.593       7.277       6.968       6.796       6.706    
        6.550       6.372       6.265       6.170       6.020       5.756       5.460       5.289       5.162       5.016    
        4.833       4.654       4.450       4.247       4.051       3.840       3.614       3.377       3.057       2.736    
        2.480       2.276       2.133       1.986       1.777       1.543       1.282      0.9286      0.4547       0.000    
  40    10.00       9.901       9.828       9.748       9.640       9.492       9.335       9.185       9.030       8.845    
        8.691       8.576       8.379       8.083       7.727       7.375       7.058       6.855       6.749       6.626    
        6.450       6.300       6.209       6.083       5.910       5.696       5.511       5.344       5.195       5.056    
        4.887       4.689       4.482       4.294       4.114       3.900       3.657       3.420       3.072       2.722    
        2.491       2.322       2.173       2.047       1.835       1.575       1.335      0.9648      0.4763       0.000    
  41    10.00       9.908       9.822       9.733       9.612       9.478       9.339       9.205       9.055       8.888    
        8.740       8.593       8.311       7.925       7.533       7.217       6.974       6.807       6.694       6.549    
        6.369       6.243       6.134       6.001       5.853       5.706       5.573       5.412       5.234       5.074    
        4.922       4.734       4.527       4.356       4.169       3.960       3.712       3.382       2.997       2.728    
        2.541       2.365       2.228       2.069       1.846       1.588       1.376       1.024      0.5243       0.000    
  42    10.00       9.910       9.814       9.731       9.626       9.500       9.361       9.211       9.076       8.945    
        8.761       8.486       8.129       7.731       7.379       7.140       6.930       6.774       6.639       6.465    
        6.300       6.182       6.068       5.976       5.855       5.750       5.626       5.441       5.250       5.109    
        4.976       4.774       4.552       4.392       4.232       3.998       3.679       3.284       2.943       2.738    
        2.589       2.440       2.271       2.064       1.832       1.625       1.411       1.066      0.5485       0.000    
  43    10.00       9.911       9.822       9.737       9.653       9.541       9.401       9.251       9.101       8.910    
        8.635       8.317       7.953       7.571       7.302       7.102       6.905       6.739       6.574       6.401    
        6.248       6.138       6.057       5.986       5.882       5.768       5.646       5.465       5.295       5.181    
        5.013       4.790       4.583       4.425       4.241       3.955       3.581       3.200       2.963       2.802    
        2.644       2.483       2.276       2.053       1.842       1.641       1.449       1.063      0.4788       0.000    
  44    10.00       9.905       9.824       9.750       9.657       9.570       9.451       9.265       9.060       8.789    
        8.510       8.176       7.779       7.503       7.297       7.075       6.858       6.666       6.487       6.333    
        6.226       6.140       6.066       5.993       5.903       5.787       5.644       5.501       5.371       5.227    
        5.065       4.864       4.630       4.407       4.191       3.899       3.509       3.181       2.991       2.835    
        2.684       2.506       2.299       2.100       1.879       1.656       1.405      0.9101      0.4022       0.000    
  45    10.00       9.905       9.838       9.753       9.665       9.587       9.410       9.197       8.953       8.686    
        8.452       8.051       7.683       7.478       7.265       7.022       6.776       6.579       6.423       6.314    
        6.238       6.163       6.085       5.999       5.901       5.795       5.676       5.556       5.449       5.301    
        5.107       4.892       4.655       4.386       4.141       3.824       3.458       3.200       3.044       2.887    
        2.691       2.486       2.304       2.124       1.931       1.692       1.267      0.7628      0.3863       0.000    
  46    10.00       9.921       9.850       9.759       9.662       9.513       9.326       9.149       8.926       8.665    
        8.326       7.958       7.663       7.406       7.189       6.948       6.702       6.549       6.432       6.333    
        6.263       6.193       6.101       5.998       5.902       5.808       5.711       5.604       5.497       5.360    
        5.180       4.956       4.692       4.388       4.047       3.707       3.441       3.265       3.092       2.912    
        2.686       2.472       2.291       2.147       1.939       1.605       1.136      0.7184      0.3650       0.000    
  47    10.00       9.939       9.872       9.777       9.608       9.428       9.268       9.116       8.916       8.590    
        8.225       7.883       7.599       7.383       7.151       6.884       6.672       6.536       6.444       6.362    
        6.287       6.206       6.114       6.012       5.918       5.837       5.751       5.646       5.522       5.387    
        5.227       5.028       4.687       4.284       3.964       3.714       3.483       3.332       3.173       2.923    
        2.654       2.429       2.261       2.143       1.883       1.485       1.054      0.6912      0.3548       0.000    
  48    10.00       9.946       9.875       9.733       9.562       9.413       9.242       9.088       8.875       8.530    
        8.133       7.823       7.593       7.336       7.065       6.826       6.667       6.534       6.446       6.385    
        6.309       6.212       6.111       6.023       5.947       5.879       5.797       5.680       5.533       5.376    
        5.210       4.982       4.630       4.300       4.020       3.772       3.556       3.385       3.180       2.880    
        2.596       2.415       2.275       2.055       1.707       1.351       1.006      0.6961      0.3745       0.000    
  49    10.00       9.943       9.842       9.714       9.574       9.401       9.229       9.056       8.792       8.427    
        8.085       7.795       7.517       7.274       7.065       6.840       6.635       6.515       6.456       6.398    
        6.327       6.216       6.105       6.032       5.969       5.915       5.823       5.682       5.516       5.365    
        5.192       4.913       4.615       4.394       4.138       3.847       3.585       3.379       3.142       2.823    
        2.593       2.435       2.226       1.894       1.585       1.294      0.9949      0.6960      0.3732       0.000    
  50    10.00       9.935       9.830       9.700       9.573       9.411       9.218       9.003       8.724       8.436    
        8.078       7.715       7.458       7.264       7.088       6.834       6.607       6.517       6.465       6.406    
        6.335       6.221       6.107       6.036       5.983       5.933       5.828       5.666       5.498       5.355    
        5.177       4.890       4.660       4.461       4.193       3.904       3.630       3.347       3.024       2.757    
        2.638       2.459       2.136       1.803       1.574       1.292       1.009      0.6816      0.3039       0.000    

 HEAD WILL BE SAVED ON UNIT   51 AT END OF TIME STEP  15, STRESS PERIOD    2

 DRAWDOWN WILL BE SAVED ON UNIT   52 AT END OF TIME STEP  15, STRESS PERIOD    2
1
  VOLUMETRIC BUDGET FOR ENTIRE MODEL AT END OF TIME STEP 15 IN STRESS PERIOD   2
  ------------------------------------------------------------------------------

     CUMULATIVE VOLUMES      L**3       RATES FOR THIS TIME STEP      L**3/T
     ------------------                 ------------------------

           IN:                                      IN:
           ---                                      ---
             STORAGE =        7498.6978               STORAGE =         499.5650
       CONSTANT HEAD =        9554.7021         CONSTANT HEAD =         597.5131
               WELLS =           0.0000                 WELLS =           0.0000

            TOTAL IN =       17053.4004              TOTAL IN =        1097.0781

          OUT:                                     OUT:
          ----                                     ----
             STORAGE =       9.4320E-03               STORAGE =           0.0000
       CONSTANT HEAD =        9553.3906         CONSTANT HEAD =         597.0781
               WELLS =        7500.0000                 WELLS =         500.0000

           TOTAL OUT =       17053.4004             TOTAL OUT =        1097.0781

            IN - OUT =           0.0000              IN - OUT =           0.0000

 PERCENT DISCREPANCY =           0.00     PERCENT DISCREPANCY =           0.00






          TIME SUMMARY AT END OF TIME STEP  15 IN STRESS PERIOD    2
                    SECONDS     MINUTES      HOURS       DAYS        YEARS
                    -----------------------------------------------------------
   TIME STEP LENGTH  86400.      1440.0      24.000      1.0000     2.73785E-03
 STRESS PERIOD TIME 1.29600E+06  21600.      360.00      15.000     4.10678E-02
         TOTAL TIME 1.38240E+06  23040.      384.00      16.000     4.38056E-02
1
 
 SOLVING FOR HEAD 

 OUTPUT CONTROL FOR STRESS PERIOD    2   TIME STEP  16
    SAVE HEAD FOR ALL LAYERS
    SAVE DRAWDOWN FOR ALL LAYERS
    SAVE BUDGET
    PRINT HEAD FOR ALL LAYERS
    PRINT BUDGET
 UBDSV1 SAVING "         STORAGE" ON UNIT  53 AT TIME STEP 16, STRESS PERIOD   2
 UBDSV2 SAVING "   CONSTANT HEAD" ON UNIT  53 AT TIME STEP 16, STRESS PERIOD   2
 UBDSV1 SAVING "FLOW RIGHT FACE " ON UNIT  53 AT TIME STEP 16, STRESS PERIOD   2
 UBDSV1 SAVING "FLOW FRONT FACE " ON UNIT  53 AT TIME STEP 16, STRESS PERIOD   2
1
              HEAD IN LAYER   1 AT END OF TIME STEP  16 IN STRESS PERIOD    2
  ---------------------------------------------------------------------------

            1           2           3           4           5           6           7           8           9          10
           11          12          13          14          15          16          17          18          19          20
           21          22          23          24          25          26          27          28          29          30
           31          32          33          34          35          36          37          38          39          40
           41          42          43          44          45          46          47          48          49          50
 ........................................................................................................................
   1    10.00       9.959       9.902       9.836       9.772       9.699       9.630       9.563       9.477       9.394    
        9.329       9.265       9.200       9.136       9.033       8.909       8.771       8.662       8.606       8.539    
        8.460       8.396       8.333       8.258       8.158       7.961       7.738       7.582       7.429       7.284    
        7.095       6.794       6.409       5.982       5.539       5.069       4.605       4.218       3.713       3.165    
        2.715       2.284       1.807       1.408       1.161      0.9524      0.7868      0.6669      0.4476       0.000    
   2    10.00       9.959       9.906       9.840       9.775       9.711       9.643       9.553       9.460       9.391    
        9.335       9.281       9.226       9.147       9.029       8.900       8.770       8.662       8.604       8.530    
        8.451       8.403       8.351       8.274       8.148       7.956       7.754       7.592       7.436       7.295    
        7.085       6.769       6.366       5.880       5.408       4.953       4.551       4.177       3.664       3.134    
        2.682       2.198       1.763       1.449       1.217       1.037      0.8317      0.6491      0.3621       0.000    
   3    10.00       9.953       9.901       9.842       9.785       9.720       9.632       9.539       9.473       9.411    
        9.348       9.299       9.250       9.174       9.054       8.894       8.752       8.665       8.597       8.522    
        8.457       8.407       8.355       8.252       8.116       7.945       7.770       7.643       7.462       7.277    
        7.013       6.639       6.181       5.711       5.292       4.866       4.472       4.072       3.540       3.049    
        2.661       2.213       1.814       1.526       1.295       1.109      0.8654      0.5802      0.2630       0.000    
   4    10.00       9.953       9.902       9.845       9.780       9.705       9.615       9.543       9.486       9.423    
        9.368       9.326       9.272       9.187       9.070       8.900       8.753       8.671       8.595       8.528    
        8.459       8.397       8.330       8.224       8.090       7.938       7.779       7.623       7.464       7.254    
        6.923       6.433       5.948       5.591       5.238       4.798       4.324       3.855       3.430       3.057    
        2.693       2.277       1.900       1.639       1.379       1.142      0.8410      0.5220      0.2500       0.000    
   5    10.00       9.950       9.898       9.834       9.769       9.699       9.618       9.556       9.497       9.438    
        9.390       9.350       9.279       9.179       9.050       8.896       8.771       8.682       8.607       8.518    
        8.436       8.369       8.289       8.185       8.065       7.910       7.753       7.609       7.447       7.195    
        6.726       6.181       5.792       5.511       5.162       4.683       4.193       3.766       3.445       3.107    
        2.749       2.364       1.989       1.746       1.467       1.124      0.7657      0.4656      0.2341       0.000    
   6    10.00       9.943       9.882       9.828       9.769       9.693       9.625       9.572       9.510       9.454    
        9.408       9.359       9.271       9.159       9.047       8.918       8.792       8.690       8.591       8.489    
        8.407       8.330       8.261       8.166       8.014       7.863       7.735       7.589       7.367       6.989    
        6.476       5.984       5.660       5.415       5.098       4.625       4.134       3.769       3.498       3.190    
        2.859       2.519       2.134       1.808       1.438       1.061      0.6765      0.4019      0.2212       0.000    
   7    10.00       9.932       9.872       9.823       9.761       9.698       9.637       9.587       9.530       9.475    
        9.419       9.345       9.249       9.144       9.038       8.937       8.806       8.669       8.556       8.456    
        8.370       8.296       8.236       8.120       7.966       7.836       7.707       7.516       7.168       6.690    
        6.198       5.798       5.574       5.352       4.984       4.542       4.209       3.852       3.552       3.348    
        3.032       2.666       2.213       1.748       1.334      0.9218      0.5831      0.4050      0.2085       0.000    
   8    10.00       9.931       9.878       9.821       9.760       9.704       9.650       9.599       9.547       9.495    
        9.422       9.328       9.233       9.134       9.036       8.924       8.763       8.618       8.528       8.431    
        8.336       8.272       8.185       8.064       7.930       7.795       7.583       7.289       6.860       6.441    
        6.066       5.747       5.538       5.283       4.892       4.523       4.222       3.957       3.719       3.482    
        3.173       2.712       2.156       1.659       1.228      0.8634      0.6175      0.3969      0.1902       0.000    
   9    10.00       9.942       9.877       9.816       9.770       9.723       9.670       9.616       9.558       9.502    
        9.419       9.313       9.211       9.112       9.008       8.877       8.722       8.590       8.491       8.394    
        8.309       8.228       8.112       7.998       7.877       7.716       7.418       7.026       6.625       6.317    
        6.005       5.732       5.500       5.180       4.814       4.501       4.270       4.069       3.855       3.595    
        3.223       2.720       2.152       1.658       1.238      0.8830      0.6233      0.4005      0.2047       0.000    
  10    10.00       9.940       9.872       9.821       9.779       9.734       9.686       9.640       9.573       9.491    
        9.391       9.281       9.184       9.092       8.986       8.827       8.665       8.551       8.459       8.368    
        8.288       8.179       8.051       7.926       7.788       7.564       7.192       6.784       6.434       6.185    
        5.978       5.739       5.461       5.134       4.785       4.515       4.331       4.155       3.924       3.625    
        3.200       2.677       2.158       1.735       1.341      0.9723      0.6430      0.4254      0.2286       0.000    
  11    10.00       9.927       9.872       9.830       9.789       9.750       9.707       9.642       9.553       9.461    
        9.362       9.255       9.166       9.057       8.915       8.764       8.631       8.530       8.446       8.353    
        8.238       8.103       7.937       7.794       7.576       7.270       6.950       6.638       6.335       6.140    
        5.977       5.682       5.371       5.099       4.824       4.606       4.412       4.187       3.901       3.540    
        3.141       2.736       2.236       1.819       1.443       1.076      0.7226      0.4178      0.1752       0.000    
  12    10.00       9.929       9.879       9.835       9.800       9.760       9.710       9.621       9.517       9.431    
        9.339       9.229       9.121       8.994       8.871       8.733       8.605       8.517       8.427       8.304    
        8.124       7.927       7.735       7.541       7.255       7.020       6.822       6.522       6.260       6.096    
        5.908       5.644       5.375       5.115       4.907       4.699       4.449       4.175       3.827       3.464    
        3.125       2.758       2.274       1.863       1.509       1.125      0.7607      0.3943      0.1308       0.000    
  13    10.00       9.943       9.895       9.849       9.807       9.760       9.681       9.580       9.483       9.395    
        9.294       9.188       9.078       8.947       8.813       8.684       8.591       8.486       8.371       8.146    
        7.883       7.676       7.464       7.210       6.985       6.860       6.642       6.376       6.219       6.063    
        5.835       5.594       5.377       5.170       4.985       4.790       4.490       4.117       3.780       3.436    
        3.110       2.730       2.212       1.830       1.525       1.116      0.6997      0.3407      0.1043       0.000    
  14    10.00       9.956       9.915       9.866       9.808       9.732       9.631       9.530       9.444       9.349    
        9.245       9.147       9.024       8.890       8.774       8.662       8.530       8.400       8.186       7.858    
        7.605       7.403       7.126       6.920       6.803       6.686       6.473       6.297       6.152       5.994    
        5.788       5.595       5.431       5.238       5.034       4.834       4.497       4.089       3.740       3.386    
        3.050       2.578       2.085       1.784       1.438       1.071      0.7017      0.3159      8.9961E-02   0.000    
  15    10.00       9.965       9.922       9.868       9.800       9.689       9.567       9.480       9.399       9.306    
        9.226       9.127       8.973       8.823       8.718       8.557       8.394       8.258       7.942       7.583    
        7.351       7.085       6.842       6.753       6.680       6.542       6.357       6.192       6.073       5.942    
        5.771       5.621       5.476       5.303       5.097       4.851       4.460       4.010       3.642       3.317    
        2.958       2.481       2.091       1.715       1.304      0.9802      0.6277      0.2900      9.8098E-02   0.000    
  16    10.00       9.971       9.925       9.859       9.760       9.629       9.520       9.451       9.381       9.288    
        9.193       9.052       8.867       8.724       8.580       8.398       8.289       8.029       7.587       7.267    
        7.053       6.817       6.717       6.657       6.541       6.369       6.222       6.126       6.046       5.927    
        5.777       5.636       5.513       5.340       5.091       4.767       4.326       3.937       3.643       3.296    
        2.878       2.409       1.989       1.581       1.228      0.8690      0.5637      0.2932      0.1046       0.000    
  17    10.00       9.967       9.912       9.824       9.712       9.578       9.482       9.423       9.341       9.245    
        9.081       8.889       8.736       8.595       8.414       8.236       8.017       7.609       7.227       7.017    
        6.842       6.703       6.631       6.513       6.339       6.213       6.159       6.110       6.030       5.902    
        5.768       5.639       5.509       5.342       5.002       4.582       4.239       3.979       3.690       3.271    
        2.742       2.283       1.895       1.512       1.102      0.7255      0.4809      0.2665      0.1110       0.000    
  18    10.00       9.954       9.884       9.782       9.636       9.524       9.457       9.370       9.273       9.133    
        8.930       8.773       8.632       8.425       8.192       7.950       7.643       7.278       7.035       6.867    
        6.729       6.606       6.493       6.337       6.211       6.163       6.134       6.093       6.004       5.881    
        5.760       5.629       5.464       5.211       4.866       4.522       4.245       4.030       3.669       3.157    
        2.647       2.167       1.776       1.417       1.023      0.6697      0.4067      0.2228      0.1040       0.000    
  19    10.00       9.938       9.858       9.710       9.566       9.501       9.419       9.307       9.191       9.035    
        8.857       8.704       8.485       8.193       7.950       7.709       7.374       7.065       6.906       6.794    
        6.648       6.496       6.370       6.235       6.161       6.131       6.099       6.044       5.955       5.850    
        5.735       5.592       5.376       5.109       4.818       4.521       4.279       4.004       3.497       2.995    
        2.592       2.101       1.677       1.327      0.9406      0.6038      0.3662      0.2115      0.1059       0.000    
  20    10.00       9.920       9.797       9.645       9.540       9.466       9.376       9.258       9.121       8.977    
        8.794       8.570       8.276       8.008       7.791       7.500       7.188       7.025       6.889       6.737    
        6.582       6.423       6.269       6.166       6.115       6.073       6.018       5.963       5.883       5.791    
        5.683       5.539       5.319       5.071       4.801       4.541       4.281       3.857       3.326       2.899    
        2.455       1.980       1.604       1.254      0.8947      0.5426      0.3180      0.2134      0.1078       0.000    
  21    10.00       9.874       9.748       9.624       9.515       9.433       9.335       9.186       9.049       8.911    
        8.676       8.396       8.121       7.898       7.664       7.382       7.156       7.014       6.858       6.693    
        6.504       6.324       6.189       6.085       6.006       5.939       5.896       5.850       5.771       5.700    
        5.612       5.465       5.268       5.043       4.795       4.539       4.173       3.743       3.278       2.771    
        2.324       1.879       1.555       1.234      0.7770      0.4577      0.3256      0.2375      0.1141       0.000    
  22    10.00       9.856       9.708       9.588       9.496       9.399       9.257       9.111       8.990       8.809    
        8.563       8.271       8.033       7.847       7.590       7.328       7.136       6.989       6.835       6.637    
        6.419       6.238       6.065       5.910       5.807       5.760       5.729       5.676       5.640       5.594    
        5.515       5.389       5.231       5.015       4.773       4.522       4.136       3.697       3.151       2.651    
        2.265       1.861       1.501       1.026      0.6381      0.4583      0.3442      0.2288      9.0784E-02   0.000    
  23    10.00       9.825       9.681       9.583       9.483       9.338       9.180       9.067       8.915       8.728    
        8.478       8.217       8.032       7.798       7.519       7.289       7.127       6.992       6.819       6.583    
        6.350       6.138       5.912       5.640       5.399       5.358       5.432       5.464       5.495       5.486    
        5.433       5.326       5.178       4.997       4.760       4.489       4.124       3.575       3.000       2.588    
        2.218       1.760       1.246      0.8355      0.6212      0.4695      0.3432      0.2175      0.1012       0.000    
  24    10.00       9.802       9.698       9.585       9.445       9.289       9.164       9.041       8.892       8.676    
        8.445       8.242       8.037       7.754       7.457       7.275       7.142       7.003       6.795       6.557    
        6.327       6.084       5.739       5.116       4.174       4.512       4.953       5.220       5.346       5.379    
        5.351       5.263       5.139       4.950       4.720       4.445       3.990       3.411       2.920       2.484    
        2.036       1.554       1.101      0.7951      0.6169      0.4660      0.3347      0.2535      0.1395       0.000    
  25    10.00       9.828       9.719       9.583       9.436       9.296       9.168       9.050       8.868       8.653    
        8.459       8.261       8.011       7.698       7.468       7.303       7.156       6.993       6.799       6.580    
        6.334       6.094       5.468       4.134       1.071       3.588       4.538       5.000       5.224       5.301    
        5.288       5.221       5.090       4.868       4.625       4.297       3.831       3.276       2.831       2.359    
        1.844       1.391       1.021      0.7850      0.6407      0.5005      0.3655      0.2693      0.1757       0.000    
  26    10.00       9.853       9.751       9.605       9.453       9.329       9.196       9.048       8.860       8.692    
        8.523       8.259       7.942       7.675       7.507       7.361       7.187       6.977       6.772       6.584    
        6.396       6.137       5.569       4.614       3.600       4.126       4.681       5.013       5.198       5.268    
        5.241       5.171       5.016       4.798       4.564       4.209       3.603       3.097       2.726       2.154    
        1.598       1.225       1.009      0.8507      0.6975      0.5423      0.4018      0.2942      0.1756       0.000    
  27    10.00       9.886       9.762       9.637       9.502       9.359       9.226       9.081       8.912       8.749    
        8.520       8.206       7.931       7.714       7.569       7.404       7.175       6.945       6.779       6.632    
        6.478       6.216       5.798       5.284       4.741       4.779       4.976       5.145       5.248       5.260    
        5.211       5.130       4.981       4.761       4.449       3.906       3.346       2.957       2.396       1.842    
        1.449       1.207       1.051      0.9165      0.7753      0.5963      0.4290      0.3211      0.2157       0.000    
  28    10.00       9.897       9.792       9.673       9.550       9.414       9.276       9.129       8.967       8.777    
        8.494       8.207       7.967       7.759       7.609       7.441       7.247       7.025       6.812       6.669    
        6.533       6.349       6.078       5.709       5.379       5.233       5.247       5.314       5.316       5.277    
        5.193       5.091       4.917       4.621       4.176       3.625       3.165       2.645       2.100       1.738    
        1.454       1.256       1.101      0.9677      0.8226      0.6512      0.4858      0.3649      0.2224       0.000    
  29    10.00       9.901       9.802       9.713       9.594       9.469       9.336       9.187       9.014       8.757    
        8.477       8.224       7.994       7.822       7.647       7.465       7.289       7.113       6.914       6.735    
        6.593       6.440       6.258       6.038       5.744       5.581       5.513       5.471       5.416       5.294    
        5.159       4.981       4.773       4.382       3.878       3.405       2.944       2.430       2.021       1.762    
        1.531       1.313       1.144       1.014      0.8725      0.6969      0.5266      0.3853      0.2245       0.000    
  30    10.00       9.910       9.828       9.749       9.646       9.530       9.410       9.243       9.025       8.761    
        8.470       8.211       8.018       7.846       7.670       7.497       7.349       7.202       7.026       6.836    
        6.672       6.533       6.378       6.220       6.026       5.841       5.753       5.624       5.493       5.298    
        5.066       4.791       4.521       4.129       3.742       3.309       2.842       2.378       2.082       1.846    
        1.585       1.372       1.209       1.054      0.8947      0.7392      0.5607      0.4013      0.2424       0.000    
  31    10.00       9.925       9.854       9.780       9.704       9.613       9.480       9.280       9.025       8.750    
        8.468       8.225       8.040       7.862       7.706       7.544       7.393       7.281       7.109       6.929    
        6.773       6.628       6.490       6.331       6.185       6.040       5.898       5.741       5.521       5.248    
        4.913       4.597       4.333       4.046       3.673       3.232       2.793       2.417       2.182       1.969    
        1.698       1.452       1.262       1.098      0.9397      0.7752      0.5964      0.4284      0.2357       0.000    
  32    10.00       9.937       9.882       9.817       9.743       9.659       9.526       9.297       9.055       8.802    
        8.502       8.248       8.062       7.893       7.732       7.594       7.463       7.322       7.181       7.013    
        6.843       6.687       6.537       6.375       6.249       6.150       5.994       5.770       5.457       5.108    
        4.783       4.508       4.256       3.993       3.642       3.251       2.885       2.558       2.306       2.066    
        1.813       1.556       1.354       1.163      0.9819      0.8334      0.6504      0.4284      0.2127       0.000    
  33    10.00       9.945       9.900       9.848       9.775       9.679       9.508       9.284       9.082       8.844    
        8.548       8.294       8.099       7.911       7.758       7.643       7.526       7.385       7.230       7.064    
        6.889       6.717       6.536       6.389       6.292       6.192       5.973       5.665       5.349       5.045    
        4.749       4.515       4.273       3.956       3.632       3.283       2.972       2.708       2.445       2.182    
        1.946       1.703       1.481       1.280       1.080      0.9036      0.6982      0.4367      0.2057       0.000    
  34    10.00       9.950       9.920       9.874       9.783       9.649       9.482       9.317       9.107       8.847    
        8.581       8.330       8.117       7.925       7.792       7.702       7.576       7.428       7.251       7.089    
        6.920       6.714       6.538       6.406       6.302       6.144       5.878       5.613       5.308       4.981    
        4.737       4.548       4.322       4.014       3.691       3.376       3.091       2.854       2.585       2.321    
        2.097       1.874       1.639       1.434       1.221       1.014      0.7532      0.4837      0.2550       0.000    
  35    10.00       9.959       9.924       9.865       9.751       9.607       9.485       9.343       9.147       8.863    
        8.578       8.340       8.120       7.958       7.849       7.747       7.607       7.437       7.259       7.075    
        6.886       6.694       6.513       6.387       6.270       6.117       5.855       5.548       5.227       4.926    
        4.752       4.564       4.329       4.094       3.823       3.494       3.210       3.019       2.749       2.456    
        2.246       2.023       1.799       1.598       1.361       1.130      0.8675      0.5789      0.2893       0.000    
  36    10.00       9.956       9.905       9.838       9.725       9.588       9.477       9.342       9.143       8.874    
        8.572       8.310       8.147       8.023       7.916       7.782       7.609       7.435       7.234       6.980    
        6.781       6.622       6.470       6.359       6.251       6.067       5.779       5.470       5.149       4.895    
        4.736       4.576       4.365       4.147       3.917       3.619       3.338       3.132       2.895       2.581    
        2.346       2.120       1.892       1.726       1.498       1.242      0.9802      0.6789      0.3453       0.000    
  37    10.00       9.941       9.885       9.812       9.696       9.570       9.445       9.313       9.128       8.835    
        8.528       8.314       8.214       8.092       7.948       7.806       7.596       7.376       7.105       6.842    
        6.709       6.583       6.438       6.316       6.184       5.955       5.694       5.365       5.094       4.918    
        4.766       4.595       4.380       4.192       3.954       3.671       3.450       3.251       2.989       2.676    
        2.395       2.175       1.994       1.809       1.592       1.355       1.104      0.7661      0.4150       0.000    
  38    10.00       9.934       9.861       9.782       9.674       9.550       9.410       9.271       9.073       8.800    
        8.563       8.393       8.265       8.149       7.978       7.746       7.497       7.211       6.914       6.759    
        6.656       6.495       6.345       6.245       6.090       5.862       5.549       5.264       5.117       4.979    
        4.809       4.619       4.416       4.226       3.993       3.736       3.540       3.336       3.024       2.698    
        2.454       2.251       2.067       1.882       1.689       1.461       1.201      0.8765      0.4547       0.000    
  39    10.00       9.916       9.841       9.762       9.656       9.516       9.363       9.216       9.034       8.813    
        8.626       8.498       8.350       8.175       7.903       7.591       7.275       6.967       6.794       6.704    
        6.548       6.370       6.263       6.168       6.018       5.755       5.460       5.289       5.162       5.016    
        4.832       4.653       4.449       4.247       4.051       3.840       3.614       3.377       3.057       2.735    
        2.480       2.276       2.133       1.986       1.777       1.543       1.282      0.9286      0.4547       0.000    
  40    10.00       9.901       9.828       9.748       9.639       9.492       9.335       9.185       9.030       8.845    
        8.690       8.575       8.378       8.082       7.726       7.374       7.057       6.854       6.748       6.625    
        6.449       6.299       6.208       6.082       5.909       5.695       5.511       5.343       5.195       5.056    
        4.887       4.689       4.482       4.294       4.114       3.900       3.657       3.420       3.072       2.722    
        2.491       2.322       2.173       2.047       1.835       1.575       1.335      0.9648      0.4763       0.000    
  41    10.00       9.908       9.822       9.732       9.612       9.478       9.339       9.205       9.055       8.888    
        8.740       8.592       8.311       7.925       7.533       7.216       6.973       6.806       6.693       6.548    
        6.368       6.243       6.133       6.000       5.853       5.705       5.572       5.412       5.234       5.074    
        4.922       4.734       4.527       4.356       4.168       3.960       3.712       3.382       2.997       2.728    
        2.541       2.365       2.228       2.069       1.846       1.588       1.376       1.024      0.5243       0.000    
  42    10.00       9.910       9.814       9.731       9.626       9.500       9.361       9.211       9.075       8.945    
        8.760       8.486       8.129       7.731       7.379       7.139       6.930       6.774       6.639       6.465    
        6.299       6.181       6.068       5.976       5.855       5.749       5.626       5.441       5.250       5.109    
        4.976       4.774       4.552       4.392       4.231       3.998       3.679       3.284       2.943       2.738    
        2.589       2.440       2.271       2.064       1.832       1.625       1.411       1.066      0.5485       0.000    
  43    10.00       9.911       9.822       9.737       9.653       9.541       9.401       9.251       9.101       8.909    
        8.635       8.317       7.952       7.571       7.302       7.102       6.904       6.738       6.574       6.400    
        6.248       6.137       6.056       5.986       5.882       5.768       5.646       5.465       5.295       5.181    
        5.013       4.790       4.583       4.425       4.241       3.955       3.581       3.200       2.963       2.802    
        2.644       2.483       2.276       2.053       1.842       1.641       1.449       1.063      0.4788       0.000    
  44    10.00       9.905       9.824       9.750       9.657       9.570       9.451       9.265       9.060       8.789    
        8.510       8.176       7.779       7.503       7.297       7.075       6.858       6.666       6.487       6.333    
        6.226       6.139       6.065       5.993       5.902       5.786       5.644       5.501       5.371       5.227    
        5.065       4.864       4.630       4.407       4.191       3.899       3.509       3.181       2.991       2.835    
        2.684       2.506       2.299       2.100       1.879       1.656       1.405      0.9101      0.4022       0.000    
  45    10.00       9.905       9.838       9.753       9.665       9.587       9.410       9.197       8.953       8.686    
        8.452       8.051       7.683       7.477       7.265       7.022       6.776       6.579       6.422       6.314    
        6.238       6.163       6.085       5.998       5.901       5.795       5.676       5.556       5.449       5.300    
        5.107       4.892       4.655       4.386       4.141       3.824       3.458       3.200       3.044       2.887    
        2.691       2.486       2.304       2.124       1.931       1.692       1.267      0.7628      0.3863       0.000    
  46    10.00       9.921       9.850       9.759       9.662       9.513       9.326       9.149       8.926       8.665    
        8.326       7.958       7.663       7.406       7.189       6.948       6.702       6.549       6.432       6.333    
        6.263       6.193       6.101       5.997       5.902       5.808       5.711       5.604       5.497       5.360    
        5.180       4.956       4.692       4.388       4.047       3.707       3.441       3.265       3.092       2.912    
        2.686       2.472       2.291       2.147       1.939       1.605       1.136      0.7184      0.3650       0.000    
  47    10.00       9.939       9.872       9.777       9.608       9.428       9.268       9.116       8.916       8.590    
        8.225       7.883       7.599       7.383       7.151       6.883       6.672       6.536       6.444       6.362    
        6.287       6.205       6.114       6.012       5.918       5.837       5.751       5.645       5.522       5.387    
        5.227       5.028       4.687       4.284       3.964       3.714       3.483       3.332       3.173       2.923    
        2.654       2.429       2.261       2.143       1.883       1.485       1.054      0.6912      0.3548       0.000    
  48    10.00       9.946       9.875       9.733       9.562       9.413       9.242       9.088       8.875       8.530    
        8.133       7.823       7.593       7.336       7.065       6.826       6.667       6.534       6.445       6.385    
        6.309       6.212       6.111       6.022       5.947       5.879       5.797       5.680       5.533       5.376    
        5.210       4.982       4.630       4.300       4.020       3.772       3.556       3.385       3.180       2.880    
        2.596       2.415       2.275       2.055       1.707       1.351       1.006      0.6961      0.3745       0.000    
  49    10.00       9.943       9.842       9.714       9.574       9.401       9.229       9.056       8.792       8.427    
        8.085       7.795       7.517       7.274       7.065       6.840       6.635       6.515       6.456       6.398    
        6.327       6.216       6.105       6.031       5.969       5.915       5.823       5.681       5.516       5.365    
        5.192       4.913       4.615       4.394       4.138       3.847       3.585       3.379       3.142       2.823    
        2.593       2.435       2.226       1.894       1.585       1.294      0.9949      0.6960      0.3732       0.000    
  50    10.00       9.935       9.830       9.700       9.573       9.411       9.218       9.003       8.724       8.436    
        8.078       7.715       7.458       7.264       7.088       6.834       6.607       6.517       6.465       6.405    
        6.335       6.221       6.107       6.036       5.983       5.933       5.828       5.666       5.498       5.355    
        5.177       4.890       4.660       4.461       4.193       3.904       3.630       3.347       3.024       2.757    
        2.638       2.459       2.136       1.803       1.574       1.292       1.009      0.6816      0.3039       0.000    

 HEAD WILL BE SAVED ON UNIT   51 AT END OF TIME STEP  16, STRESS PERIOD    2

 DRAWDOWN WILL BE SAVED ON UNIT   52 AT END OF TIME STEP  16, STRESS PERIOD    2
1
  VOLUMETRIC BUDGET FOR ENTIRE MODEL AT END OF TIME STEP 16 IN STRESS PERIOD   2
  ------------------------------------------------------------------------------

     CUMULATIVE VOLUMES      L**3       RATES FOR THIS TIME STEP      L**3/T
     ------------------                 ------------------------

           IN:                                      IN:
           ---                                      ---
             STORAGE =        7998.1060               STORAGE =         499.4081
       CONSTANT HEAD =       10152.3672         CONSTANT HEAD =         597.6655
               WELLS =           0.0000                 WELLS =           0.0000

            TOTAL IN =       18150.4727              TOTAL IN =        1097.0737

          OUT:                                     OUT:
          ----                                     ----
             STORAGE =       9.4320E-03               STORAGE =           0.0000
       CONSTANT HEAD =       10150.4639         CONSTANT HEAD =         597.0728
               WELLS =        8000.0000                 WELLS =         500.0000

           TOTAL OUT =       18150.4727             TOTAL OUT =        1097.0728

            IN - OUT =           0.0000              IN - OUT =       9.7656E-04

 PERCENT DISCREPANCY =           0.00     PERCENT DISCREPANCY =           0.00






          TIME SUMMARY AT END OF TIME STEP  16 IN STRESS PERIOD    2
                    SECONDS     MINUTES      HOURS       DAYS        YEARS
                    -----------------------------------------------------------
   TIME STEP LENGTH  86400.      1440.0      24.000      1.0000     2.73785E-03
 STRESS PERIOD TIME 1.38240E+06  23040.      384.00      16.000     4.38056E-02
         TOTAL TIME 1.46880E+06  24480.      408.00      17.000     4.65435E-02
1
 
 SOLVING FOR HEAD 

 OUTPUT CONTROL FOR STRESS PERIOD    2   TIME STEP  17
    SAVE HEAD FOR ALL LAYERS
    SAVE DRAWDOWN FOR ALL LAYERS
    SAVE BUDGET
    PRINT HEAD FOR ALL LAYERS
    PRINT BUDGET
 UBDSV1 SAVING "         STORAGE" ON UNIT  53 AT TIME STEP 17, STRESS PERIOD   2
 UBDSV2 SAVING "   CONSTANT HEAD" ON UNIT  53 AT TIME STEP 17, STRESS PERIOD   2
 UBDSV1 SAVING "FLOW RIGHT FACE " ON UNIT  53 AT TIME STEP 17, STRESS PERIOD   2
 UBDSV1 SAVING "FLOW FRONT FACE " ON UNIT  53 AT TIME STEP 17, STRESS PERIOD   2
1
              HEAD IN LAYER   1 AT END OF TIME STEP  17 IN STRESS PERIOD    2
  ---------------------------------------------------------------------------

            1           2           3           4           5           6           7           8           9          10
           11          12          13          14          15          16          17          18          19          20
           21          22          23          24          25          26          27          28          29          30
           31          32          33          34          35          36          37          38          39          40
           41          42          43          44          45          46          47          48          49          50
 ........................................................................................................................
   1    10.00       9.959       9.902       9.836       9.772       9.699       9.630       9.563       9.477       9.394    
        9.329       9.265       9.199       9.136       9.033       8.909       8.770       8.661       8.605       8.538    
        8.459       8.395       8.332       8.257       8.158       7.961       7.738       7.582       7.428       7.283    
        7.095       6.793       6.408       5.981       5.539       5.069       4.605       4.218       3.713       3.165    
        2.715       2.284       1.807       1.408       1.161      0.9523      0.7868      0.6669      0.4476       0.000    
   2    10.00       9.959       9.906       9.840       9.775       9.711       9.643       9.553       9.460       9.391    
        9.335       9.281       9.226       9.147       9.029       8.899       8.769       8.661       8.603       8.529    
        8.450       8.402       8.350       8.273       8.147       7.955       7.753       7.591       7.436       7.295    
        7.084       6.769       6.366       5.880       5.408       4.953       4.551       4.177       3.664       3.134    
        2.682       2.198       1.763       1.449       1.217       1.037      0.8317      0.6491      0.3621       0.000    
   3    10.00       9.953       9.901       9.842       9.785       9.720       9.632       9.539       9.473       9.411    
        9.348       9.298       9.250       9.174       9.053       8.893       8.752       8.665       8.596       8.521    
        8.456       8.406       8.354       8.251       8.115       7.944       7.769       7.642       7.461       7.276    
        7.012       6.639       6.181       5.711       5.291       4.866       4.472       4.071       3.540       3.048    
        2.660       2.213       1.814       1.526       1.295       1.109      0.8654      0.5802      0.2630       0.000    
   4    10.00       9.953       9.902       9.845       9.780       9.705       9.615       9.543       9.486       9.423    
        9.368       9.326       9.272       9.186       9.069       8.899       8.752       8.670       8.594       8.527    
        8.458       8.396       8.329       8.223       8.089       7.937       7.778       7.622       7.463       7.253    
        6.923       6.432       5.947       5.590       5.238       4.798       4.324       3.854       3.429       3.057    
        2.693       2.277       1.900       1.639       1.379       1.142      0.8410      0.5220      0.2500       0.000    
   5    10.00       9.950       9.898       9.834       9.769       9.699       9.618       9.556       9.497       9.438    
        9.390       9.349       9.279       9.179       9.050       8.896       8.771       8.681       8.606       8.517    
        8.435       8.368       8.288       8.183       8.063       7.909       7.752       7.608       7.446       7.195    
        6.725       6.180       5.792       5.511       5.161       4.683       4.192       3.766       3.445       3.107    
        2.748       2.364       1.989       1.746       1.467       1.124      0.7657      0.4656      0.2341       0.000    
   6    10.00       9.943       9.882       9.828       9.769       9.693       9.625       9.571       9.509       9.453    
        9.408       9.359       9.271       9.158       9.046       8.917       8.791       8.689       8.590       8.488    
        8.406       8.329       8.259       8.165       8.013       7.861       7.734       7.588       7.366       6.988    
        6.475       5.983       5.659       5.414       5.098       4.624       4.133       3.769       3.497       3.190    
        2.859       2.519       2.134       1.808       1.438       1.061      0.6765      0.4019      0.2212       0.000    
   7    10.00       9.932       9.872       9.823       9.761       9.698       9.637       9.587       9.530       9.475    
        9.419       9.345       9.249       9.143       9.037       8.936       8.805       8.667       8.555       8.454    
        8.369       8.295       8.234       8.118       7.964       7.834       7.705       7.514       7.166       6.689    
        6.196       5.796       5.572       5.351       4.983       4.541       4.208       3.851       3.551       3.348    
        3.032       2.666       2.213       1.748       1.334      0.9218      0.5831      0.4050      0.2085       0.000    
   8    10.00       9.931       9.878       9.821       9.760       9.704       9.650       9.599       9.547       9.494    
        9.422       9.328       9.233       9.133       9.036       8.923       8.762       8.617       8.526       8.429    
        8.334       8.270       8.182       8.061       7.927       7.792       7.580       7.287       6.857       6.438    
        6.063       5.745       5.535       5.282       4.891       4.522       4.220       3.955       3.718       3.482    
        3.173       2.712       2.155       1.659       1.228      0.8634      0.6175      0.3969      0.1902       0.000    
   9    10.00       9.942       9.877       9.816       9.770       9.723       9.670       9.616       9.558       9.502    
        9.419       9.313       9.210       9.111       9.008       8.876       8.721       8.588       8.489       8.392    
        8.307       8.225       8.109       7.995       7.874       7.713       7.414       7.022       6.621       6.313    
        6.001       5.729       5.497       5.177       4.812       4.500       4.268       4.068       3.854       3.594    
        3.222       2.719       2.152       1.658       1.238      0.8829      0.6233      0.4005      0.2047       0.000    
  10    10.00       9.940       9.872       9.821       9.779       9.734       9.686       9.640       9.573       9.491    
        9.391       9.281       9.183       9.091       8.985       8.825       8.663       8.549       8.457       8.365    
        8.285       8.176       8.048       7.922       7.783       7.559       7.186       6.778       6.428       6.179    
        5.973       5.735       5.457       5.130       4.782       4.512       4.329       4.154       3.923       3.624    
        3.199       2.677       2.158       1.735       1.341      0.9723      0.6430      0.4254      0.2286       0.000    
  11    10.00       9.927       9.872       9.830       9.789       9.750       9.707       9.642       9.552       9.461    
        9.361       9.254       9.165       9.056       8.914       8.762       8.629       8.527       8.443       8.350    
        8.235       8.099       7.932       7.789       7.569       7.262       6.942       6.630       6.327       6.132    
        5.970       5.677       5.366       5.094       4.821       4.603       4.409       4.185       3.900       3.539    
        3.140       2.736       2.236       1.819       1.443       1.076      0.7226      0.4178      0.1752       0.000    
  12    10.00       9.929       9.878       9.835       9.799       9.760       9.710       9.621       9.517       9.430    
        9.338       9.228       9.120       8.993       8.869       8.731       8.603       8.514       8.424       8.300    
        8.119       7.921       7.728       7.532       7.244       7.009       6.811       6.511       6.250       6.087    
        5.900       5.636       5.368       5.110       4.903       4.695       4.446       4.173       3.826       3.463    
        3.124       2.757       2.274       1.863       1.509       1.125      0.7606      0.3942      0.1308       0.000    
  13    10.00       9.943       9.895       9.848       9.807       9.760       9.681       9.580       9.483       9.395    
        9.293       9.187       9.076       8.945       8.811       8.681       8.588       8.483       8.367       8.140    
        7.874       7.666       7.453       7.196       6.970       6.845       6.628       6.362       6.206       6.052    
        5.825       5.585       5.369       5.163       4.979       4.786       4.487       4.115       3.779       3.435    
        3.110       2.730       2.211       1.830       1.525       1.116      0.6997      0.3407      0.1043       0.000    
  14    10.00       9.956       9.915       9.866       9.808       9.732       9.630       9.530       9.444       9.348    
        9.244       9.146       9.023       8.888       8.771       8.659       8.526       8.395       8.180       7.848    
        7.593       7.389       7.109       6.902       6.785       6.668       6.455       6.280       6.136       5.979    
        5.775       5.583       5.421       5.230       5.028       4.829       4.494       4.086       3.738       3.384    
        3.050       2.578       2.085       1.784       1.438       1.071      0.7017      0.3159      8.9959E-02   0.000    
  15    10.00       9.965       9.922       9.868       9.800       9.689       9.567       9.479       9.399       9.306    
        9.225       9.125       8.971       8.821       8.715       8.553       8.389       8.252       7.932       7.569    
        7.334       7.065       6.821       6.731       6.659       6.521       6.337       6.172       6.054       5.925    
        5.756       5.608       5.465       5.293       5.089       4.845       4.456       4.007       3.641       3.316    
        2.957       2.481       2.091       1.715       1.304      0.9801      0.6277      0.2900      9.8096E-02   0.000    
  16    10.00       9.971       9.925       9.859       9.759       9.628       9.520       9.451       9.380       9.287    
        9.192       9.050       8.864       8.721       8.575       8.392       8.281       8.019       7.571       7.248    
        7.032       6.793       6.694       6.634       6.518       6.345       6.198       6.103       6.025       5.908    
        5.760       5.621       5.500       5.329       5.083       4.761       4.322       3.934       3.641       3.294    
        2.878       2.408       1.989       1.581       1.228      0.8690      0.5637      0.2932      0.1046       0.000    
  17    10.00       9.967       9.912       9.824       9.712       9.577       9.482       9.422       9.340       9.244    
        9.079       8.886       8.733       8.590       8.407       8.227       8.006       7.592       7.205       6.993    
        6.817       6.677       6.605       6.487       6.313       6.187       6.134       6.086       6.007       5.882    
        5.750       5.623       5.495       5.330       4.993       4.576       4.235       3.975       3.688       3.270    
        2.742       2.283       1.894       1.512       1.102      0.7255      0.4809      0.2665      0.1110       0.000    
  18    10.00       9.954       9.884       9.782       9.636       9.523       9.457       9.369       9.272       9.132    
        8.928       8.769       8.627       8.418       8.182       7.937       7.626       7.255       7.010       6.840    
        6.702       6.578       6.465       6.309       6.183       6.135       6.107       6.067       5.980       5.859    
        5.740       5.612       5.450       5.199       4.857       4.515       4.241       4.026       3.666       3.156    
        2.647       2.166       1.776       1.416       1.023      0.6697      0.4067      0.2228      0.1040       0.000    
  19    10.00       9.938       9.858       9.710       9.566       9.501       9.418       9.307       9.190       9.033    
        8.854       8.700       8.479       8.183       7.937       7.692       7.353       7.040       6.879       6.766    
        6.620       6.466       6.340       6.205       6.132       6.102       6.071       6.016       5.928       5.826    
        5.713       5.573       5.360       5.097       4.809       4.514       4.274       4.000       3.495       2.993    
        2.591       2.101       1.677       1.327      0.9406      0.6038      0.3662      0.2115      0.1059       0.000    
  20    10.00       9.920       9.797       9.645       9.539       9.466       9.375       9.257       9.120       8.975    
        8.791       8.564       8.267       7.995       7.775       7.480       7.164       6.999       6.862       6.709    
        6.552       6.392       6.238       6.135       6.085       6.043       5.988       5.934       5.855       5.765    
        5.659       5.518       5.302       5.058       4.791       4.533       4.276       3.854       3.324       2.898    
        2.454       1.980       1.604       1.254      0.8947      0.5426      0.3180      0.2134      0.1078       0.000    
  21    10.00       9.874       9.748       9.624       9.515       9.432       9.334       9.185       9.047       8.909    
        8.672       8.388       8.110       7.884       7.646       7.360       7.131       6.987       6.830       6.664    
        6.473       6.293       6.157       6.053       5.974       5.907       5.864       5.818       5.741       5.671    
        5.586       5.442       5.249       5.028       4.784       4.530       4.168       3.740       3.276       2.770    
        2.324       1.879       1.555       1.234      0.7770      0.4577      0.3256      0.2375      0.1141       0.000    
  22    10.00       9.856       9.708       9.588       9.496       9.398       9.256       9.109       8.988       8.806    
        8.558       8.262       8.020       7.832       7.571       7.305       7.111       6.962       6.806       6.606    
        6.387       6.205       6.032       5.876       5.774       5.726       5.695       5.642       5.607       5.563    
        5.488       5.364       5.210       4.999       4.761       4.513       4.130       3.694       3.149       2.650    
        2.264       1.861       1.501       1.026      0.6381      0.4582      0.3442      0.2288      9.0781E-02   0.000    
  23    10.00       9.825       9.681       9.582       9.482       9.338       9.179       9.065       8.913       8.724    
        8.472       8.208       8.020       7.782       7.499       7.266       7.101       6.965       6.790       6.551    
        6.318       6.104       5.877       5.605       5.363       5.321       5.395       5.428       5.460       5.453    
        5.403       5.301       5.157       4.980       4.747       4.480       4.118       3.572       2.998       2.587    
        2.218       1.760       1.246      0.8354      0.6212      0.4695      0.3431      0.2175      0.1012       0.000    
  24    10.00       9.802       9.698       9.585       9.445       9.288       9.163       9.039       8.889       8.672    
        8.438       8.232       8.025       7.738       7.437       7.252       7.116       6.976       6.765       6.525    
        6.294       6.050       5.703       5.079       4.134       4.471       4.912       5.181       5.310       5.345    
        5.321       5.237       5.117       4.933       4.707       4.436       3.985       3.408       2.919       2.483    
        2.036       1.554       1.101      0.7951      0.6169      0.4660      0.3347      0.2535      0.1395       0.000    
  25    10.00       9.828       9.719       9.583       9.436       9.295       9.166       9.048       8.865       8.648    
        8.452       8.252       7.998       7.681       7.447       7.280       7.131       6.966       6.770       6.549    
        6.301       6.059       5.431       4.093       1.026       3.544       4.495       4.959       5.186       5.266    
        5.257       5.194       5.068       4.851       4.612       4.288       3.826       3.273       2.830       2.358    
        1.844       1.390       1.021      0.7849      0.6407      0.5005      0.3655      0.2692      0.1757       0.000    
  26    10.00       9.853       9.750       9.604       9.452       9.329       9.195       9.046       8.857       8.687    
        8.517       8.250       7.929       7.658       7.488       7.339       7.163       6.950       6.742       6.553    
        6.363       6.102       5.531       4.573       3.556       4.082       4.637       4.970       5.159       5.233    
        5.210       5.144       4.995       4.782       4.551       4.200       3.599       3.095       2.725       2.153    
        1.598       1.225       1.009      0.8507      0.6975      0.5422      0.4018      0.2942      0.1756       0.000    
  27    10.00       9.886       9.762       9.637       9.501       9.358       9.225       9.079       8.909       8.745    
        8.514       8.197       7.918       7.698       7.550       7.384       7.151       6.918       6.750       6.602    
        6.446       6.181       5.761       5.244       4.697       4.734       4.932       5.102       5.208       5.226    
        5.182       5.104       4.960       4.745       4.438       3.900       3.344       2.955       2.395       1.842    
        1.448       1.207       1.050      0.9165      0.7753      0.5963      0.4290      0.3211      0.2157       0.000    
  28    10.00       9.896       9.792       9.673       9.549       9.413       9.274       9.127       8.965       8.773    
        8.488       8.198       7.955       7.745       7.592       7.421       7.224       7.000       6.783       6.639    
        6.502       6.316       6.042       5.670       5.338       5.190       5.204       5.273       5.278       5.244    
        5.165       5.066       4.897       4.608       4.168       3.621       3.163       2.644       2.100       1.738    
        1.454       1.256       1.101      0.9677      0.8225      0.6512      0.4858      0.3649      0.2224       0.000    
  29    10.00       9.901       9.802       9.713       9.594       9.469       9.335       9.185       9.012       8.753    
        8.471       8.216       7.983       7.809       7.632       7.447       7.268       7.090       6.887       6.706    
        6.562       6.408       6.224       6.002       5.705       5.540       5.473       5.432       5.380       5.264    
        5.134       4.961       4.758       4.373       3.873       3.402       2.943       2.429       2.021       1.761    
        1.531       1.313       1.143       1.014      0.8725      0.6969      0.5265      0.3853      0.2245       0.000    
  30    10.00       9.910       9.828       9.749       9.645       9.529       9.409       9.242       9.023       8.757    
        8.465       8.203       8.008       7.834       7.656       7.480       7.330       7.181       7.002       6.810    
        6.643       6.503       6.346       6.187       5.991       5.806       5.718       5.590       5.463       5.273    
        5.046       4.777       4.510       4.123       3.738       3.307       2.841       2.377       2.082       1.846    
        1.585       1.371       1.209       1.054      0.8946      0.7392      0.5607      0.4013      0.2424       0.000    
  31    10.00       9.925       9.854       9.780       9.704       9.612       9.479       9.279       9.024       8.746    
        8.463       8.218       8.031       7.851       7.693       7.529       7.376       7.263       7.088       6.906    
        6.748       6.601       6.462       6.302       6.157       6.011       5.869       5.712       5.496       5.229    
        4.900       4.588       4.327       4.042       3.671       3.231       2.793       2.417       2.181       1.969    
        1.698       1.452       1.261       1.098      0.9397      0.7752      0.5964      0.4284      0.2357       0.000    
  32    10.00       9.937       9.882       9.817       9.743       9.659       9.525       9.296       9.054       8.800    
        8.497       8.242       8.054       7.884       7.721       7.581       7.448       7.306       7.162       6.992    
        6.821       6.663       6.513       6.351       6.225       6.126       5.969       5.748       5.440       5.096    
        4.775       4.502       4.251       3.990       3.640       3.250       2.884       2.558       2.306       2.066    
        1.813       1.556       1.354       1.163      0.9819      0.8334      0.6503      0.4284      0.2127       0.000    
  33    10.00       9.945       9.900       9.848       9.775       9.679       9.507       9.284       9.081       8.842    
        8.545       8.289       8.092       7.903       7.748       7.632       7.514       7.371       7.214       7.047    
        6.870       6.697       6.516       6.368       6.271       6.171       5.955       5.650       5.338       5.037    
        4.743       4.511       4.270       3.954       3.630       3.282       2.971       2.708       2.445       2.182    
        1.946       1.703       1.481       1.280       1.079      0.9036      0.6981      0.4367      0.2057       0.000    
  34    10.00       9.950       9.920       9.874       9.783       9.648       9.481       9.316       9.106       8.845    
        8.579       8.326       8.111       7.919       7.784       7.693       7.566       7.417       7.238       7.075    
        6.905       6.698       6.521       6.389       6.285       6.128       5.865       5.603       5.301       4.976    
        4.734       4.545       4.320       4.012       3.690       3.376       3.091       2.854       2.585       2.321    
        2.097       1.874       1.639       1.434       1.221       1.014      0.7532      0.4837      0.2550       0.000    
  35    10.00       9.959       9.923       9.864       9.751       9.607       9.485       9.343       9.146       8.862    
        8.575       8.336       8.116       7.953       7.842       7.739       7.599       7.428       7.248       7.064    
        6.875       6.683       6.501       6.374       6.258       6.106       5.846       5.541       5.222       4.923    
        4.749       4.562       4.328       4.093       3.822       3.493       3.210       3.019       2.749       2.456    
        2.246       2.023       1.799       1.598       1.361       1.130      0.8675      0.5789      0.2893       0.000    
  36    10.00       9.956       9.905       9.838       9.725       9.588       9.477       9.342       9.143       8.873    
        8.570       8.308       8.143       8.018       7.911       7.776       7.603       7.428       7.226       6.972    
        6.773       6.614       6.462       6.350       6.242       6.059       5.774       5.466       5.146       4.893    
        4.735       4.575       4.364       4.146       3.916       3.619       3.338       3.131       2.895       2.581    
        2.346       2.120       1.892       1.726       1.498       1.242      0.9802      0.6789      0.3453       0.000    
  37    10.00       9.941       9.885       9.812       9.696       9.570       9.445       9.313       9.128       8.834    
        8.526       8.312       8.211       8.089       7.943       7.801       7.591       7.371       7.100       6.837    
        6.703       6.577       6.432       6.309       6.178       5.951       5.690       5.363       5.093       4.917    
        4.765       4.594       4.380       4.192       3.954       3.671       3.450       3.251       2.989       2.676    
        2.395       2.175       1.994       1.809       1.592       1.355       1.104      0.7661      0.4150       0.000    
  38    10.00       9.934       9.861       9.782       9.674       9.550       9.409       9.271       9.072       8.799    
        8.562       8.391       8.262       8.146       7.975       7.742       7.494       7.208       6.911       6.755    
        6.652       6.491       6.341       6.241       6.087       5.859       5.547       5.263       5.116       4.978    
        4.808       4.618       4.415       4.226       3.993       3.736       3.540       3.336       3.024       2.698    
        2.454       2.251       2.067       1.882       1.689       1.461       1.201      0.8765      0.4547       0.000    
  39    10.00       9.916       9.841       9.762       9.656       9.516       9.363       9.216       9.033       8.812    
        8.625       8.496       8.348       8.173       7.901       7.589       7.273       6.965       6.792       6.702    
        6.545       6.368       6.261       6.166       6.016       5.753       5.459       5.288       5.161       5.015    
        4.832       4.653       4.449       4.247       4.051       3.840       3.613       3.377       3.057       2.735    
        2.480       2.276       2.133       1.986       1.777       1.543       1.282      0.9286      0.4547       0.000    
  40    10.00       9.901       9.828       9.748       9.639       9.492       9.334       9.185       9.030       8.844    
        8.689       8.574       8.377       8.081       7.725       7.373       7.056       6.853       6.747       6.623    
        6.447       6.298       6.206       6.081       5.908       5.695       5.510       5.343       5.194       5.055    
        4.886       4.688       4.482       4.294       4.114       3.900       3.657       3.420       3.072       2.722    
        2.491       2.322       2.173       2.047       1.835       1.575       1.335      0.9648      0.4763       0.000    
  41    10.00       9.908       9.822       9.732       9.612       9.478       9.339       9.205       9.055       8.887    
        8.739       8.592       8.310       7.924       7.532       7.216       6.973       6.805       6.692       6.547    
        6.367       6.242       6.132       5.999       5.852       5.705       5.572       5.412       5.233       5.074    
        4.921       4.734       4.527       4.356       4.168       3.960       3.712       3.382       2.997       2.728    
        2.541       2.365       2.228       2.069       1.846       1.588       1.376       1.024      0.5243       0.000    
  42    10.00       9.910       9.814       9.731       9.626       9.500       9.361       9.210       9.075       8.945    
        8.760       8.485       8.129       7.730       7.379       7.139       6.930       6.773       6.638       6.464    
        6.299       6.181       6.067       5.975       5.855       5.749       5.626       5.441       5.250       5.109    
        4.976       4.773       4.552       4.392       4.231       3.998       3.679       3.284       2.943       2.738    
        2.589       2.440       2.271       2.064       1.832       1.625       1.411       1.066      0.5485       0.000    
  43    10.00       9.911       9.822       9.737       9.653       9.541       9.401       9.251       9.101       8.909    
        8.635       8.316       7.952       7.571       7.302       7.102       6.904       6.738       6.574       6.400    
        6.248       6.137       6.056       5.986       5.881       5.767       5.646       5.465       5.295       5.181    
        5.013       4.790       4.583       4.425       4.241       3.955       3.580       3.200       2.963       2.802    
        2.644       2.483       2.276       2.053       1.842       1.641       1.449       1.063      0.4788       0.000    
  44    10.00       9.905       9.824       9.750       9.657       9.570       9.450       9.265       9.060       8.789    
        8.510       8.176       7.779       7.503       7.297       7.075       6.858       6.666       6.487       6.333    
        6.225       6.139       6.065       5.993       5.902       5.786       5.643       5.501       5.371       5.226    
        5.065       4.864       4.630       4.407       4.191       3.899       3.509       3.181       2.991       2.835    
        2.684       2.506       2.299       2.100       1.879       1.656       1.405      0.9100      0.4022       0.000    
  45    10.00       9.905       9.838       9.753       9.665       9.587       9.410       9.197       8.953       8.686    
        8.452       8.051       7.683       7.477       7.265       7.022       6.775       6.579       6.422       6.313    
        6.237       6.162       6.085       5.998       5.901       5.795       5.676       5.555       5.448       5.300    
        5.107       4.892       4.655       4.386       4.141       3.824       3.458       3.200       3.044       2.887    
        2.691       2.486       2.304       2.124       1.931       1.692       1.267      0.7628      0.3863       0.000    
  46    10.00       9.921       9.850       9.759       9.662       9.513       9.326       9.149       8.926       8.665    
        8.326       7.958       7.663       7.406       7.189       6.948       6.702       6.549       6.432       6.333    
        6.263       6.193       6.101       5.997       5.902       5.807       5.710       5.604       5.497       5.360    
        5.179       4.956       4.692       4.388       4.047       3.707       3.441       3.265       3.092       2.912    
        2.686       2.472       2.291       2.147       1.939       1.605       1.136      0.7184      0.3650       0.000    
  47    10.00       9.939       9.872       9.777       9.608       9.428       9.268       9.116       8.916       8.590    
        8.225       7.883       7.599       7.383       7.151       6.883       6.672       6.536       6.444       6.362    
        6.287       6.205       6.114       6.012       5.918       5.837       5.751       5.645       5.522       5.386    
        5.227       5.028       4.687       4.284       3.964       3.714       3.483       3.332       3.173       2.923    
        2.654       2.429       2.261       2.143       1.883       1.485       1.054      0.6912      0.3548       0.000    
  48    10.00       9.946       9.875       9.733       9.562       9.413       9.242       9.088       8.875       8.530    
        8.133       7.823       7.593       7.336       7.065       6.826       6.667       6.534       6.445       6.385    
        6.309       6.211       6.111       6.022       5.947       5.878       5.797       5.680       5.533       5.376    
        5.210       4.982       4.630       4.300       4.020       3.772       3.556       3.385       3.180       2.880    
        2.596       2.415       2.275       2.055       1.707       1.351       1.006      0.6961      0.3745       0.000    
  49    10.00       9.943       9.842       9.714       9.574       9.401       9.229       9.056       8.791       8.427    
        8.085       7.795       7.517       7.274       7.065       6.840       6.635       6.515       6.456       6.398    
        6.327       6.216       6.105       6.031       5.969       5.915       5.823       5.681       5.516       5.365    
        5.192       4.913       4.615       4.394       4.138       3.847       3.585       3.379       3.142       2.823    
        2.593       2.435       2.226       1.894       1.585       1.294      0.9949      0.6960      0.3732       0.000    
  50    10.00       9.935       9.830       9.700       9.573       9.411       9.218       9.003       8.724       8.436    
        8.078       7.715       7.458       7.264       7.088       6.834       6.607       6.517       6.465       6.405    
        6.335       6.221       6.107       6.036       5.983       5.933       5.828       5.666       5.498       5.355    
        5.177       4.890       4.660       4.461       4.193       3.904       3.630       3.347       3.024       2.757    
        2.638       2.459       2.136       1.803       1.574       1.292       1.009      0.6816      0.3039       0.000    

 HEAD WILL BE SAVED ON UNIT   51 AT END OF TIME STEP  17, STRESS PERIOD    2

 DRAWDOWN WILL BE SAVED ON UNIT   52 AT END OF TIME STEP  17, STRESS PERIOD    2
1
  VOLUMETRIC BUDGET FOR ENTIRE MODEL AT END OF TIME STEP 17 IN STRESS PERIOD   2
  ------------------------------------------------------------------------------

     CUMULATIVE VOLUMES      L**3       RATES FOR THIS TIME STEP      L**3/T
     ------------------                 ------------------------

           IN:                                      IN:
           ---                                      ---
             STORAGE =        8497.3184               STORAGE =         499.2125
       CONSTANT HEAD =       10750.2197         CONSTANT HEAD =         597.8529
               WELLS =           0.0000                 WELLS =           0.0000

            TOTAL IN =       19247.5391              TOTAL IN =        1097.0654

          OUT:                                     OUT:
          ----                                     ----
             STORAGE =       9.4320E-03               STORAGE =           0.0000
       CONSTANT HEAD =       10747.5293         CONSTANT HEAD =         597.0655
               WELLS =        8500.0000                 WELLS =         500.0000

           TOTAL OUT =       19247.5391             TOTAL OUT =        1097.0654

            IN - OUT =           0.0000              IN - OUT =           0.0000

 PERCENT DISCREPANCY =           0.00     PERCENT DISCREPANCY =           0.00






          TIME SUMMARY AT END OF TIME STEP  17 IN STRESS PERIOD    2
                    SECONDS     MINUTES      HOURS       DAYS        YEARS
                    -----------------------------------------------------------
   TIME STEP LENGTH  86400.      1440.0      24.000      1.0000     2.73785E-03
 STRESS PERIOD TIME 1.46880E+06  24480.      408.00      17.000     4.65435E-02
         TOTAL TIME 1.55520E+06  25920.      432.00      18.000     4.92813E-02
1
 
 SOLVING FOR HEAD 

 OUTPUT CONTROL FOR STRESS PERIOD    2   TIME STEP  18
    SAVE HEAD FOR ALL LAYERS
    SAVE DRAWDOWN FOR ALL LAYERS
    SAVE BUDGET
    PRINT HEAD FOR ALL LAYERS
    PRINT BUDGET
 UBDSV1 SAVING "         STORAGE" ON UNIT  53 AT TIME STEP 18, STRESS PERIOD   2
 UBDSV2 SAVING "   CONSTANT HEAD" ON UNIT  53 AT TIME STEP 18, STRESS PERIOD   2
 UBDSV1 SAVING "FLOW RIGHT FACE " ON UNIT  53 AT TIME STEP 18, STRESS PERIOD   2
 UBDSV1 SAVING "FLOW FRONT FACE " ON UNIT  53 AT TIME STEP 18, STRESS PERIOD   2
1
              HEAD IN LAYER   1 AT END OF TIME STEP  18 IN STRESS PERIOD    2
  ---------------------------------------------------------------------------

            1           2           3           4           5           6           7           8           9          10
           11          12          13          14          15          16          17          18          19          20
           21          22          23          24          25          26          27          28          29          30
           31          32          33          34          35          36          37          38          39          40
           41          42          43          44          45          46          47          48          49          50
 ........................................................................................................................
   1    10.00       9.959       9.902       9.836       9.772       9.699       9.630       9.562       9.477       9.393    
        9.328       9.265       9.199       9.135       9.032       8.908       8.770       8.661       8.604       8.538    
        8.458       8.394       8.331       8.256       8.157       7.960       7.737       7.581       7.427       7.283    
        7.095       6.793       6.408       5.981       5.539       5.069       4.605       4.218       3.713       3.165    
        2.715       2.284       1.807       1.408       1.161      0.9523      0.7868      0.6669      0.4476       0.000    
   2    10.00       9.959       9.906       9.840       9.775       9.711       9.643       9.553       9.460       9.391    
        9.335       9.280       9.226       9.147       9.029       8.899       8.769       8.661       8.603       8.528    
        8.449       8.401       8.349       8.272       8.146       7.954       7.752       7.591       7.435       7.294    
        7.084       6.769       6.365       5.880       5.408       4.953       4.551       4.177       3.664       3.134    
        2.682       2.198       1.763       1.449       1.217       1.037      0.8317      0.6491      0.3621       0.000    
   3    10.00       9.953       9.901       9.842       9.785       9.720       9.632       9.538       9.472       9.410    
        9.348       9.298       9.250       9.173       9.053       8.893       8.751       8.664       8.595       8.520    
        8.455       8.405       8.353       8.250       8.114       7.943       7.768       7.641       7.461       7.276    
        7.012       6.639       6.180       5.711       5.291       4.866       4.472       4.071       3.540       3.048    
        2.660       2.213       1.814       1.526       1.295       1.109      0.8654      0.5802      0.2630       0.000    
   4    10.00       9.953       9.902       9.845       9.780       9.705       9.615       9.543       9.486       9.422    
        9.367       9.326       9.272       9.186       9.069       8.899       8.751       8.669       8.593       8.526    
        8.457       8.395       8.328       8.222       8.088       7.935       7.777       7.621       7.462       7.253    
        6.922       6.432       5.947       5.590       5.238       4.798       4.323       3.854       3.429       3.056    
        2.693       2.277       1.900       1.639       1.379       1.142      0.8410      0.5220      0.2500       0.000    
   5    10.00       9.950       9.898       9.834       9.769       9.699       9.618       9.556       9.497       9.438    
        9.390       9.349       9.278       9.178       9.049       8.895       8.770       8.680       8.605       8.516    
        8.434       8.367       8.287       8.182       8.062       7.908       7.750       7.607       7.445       7.194    
        6.724       6.180       5.791       5.510       5.161       4.683       4.192       3.765       3.445       3.107    
        2.748       2.364       1.989       1.746       1.467       1.124      0.7657      0.4656      0.2341       0.000    
   6    10.00       9.943       9.882       9.828       9.769       9.693       9.624       9.571       9.509       9.453    
        9.408       9.359       9.270       9.158       9.046       8.916       8.790       8.688       8.589       8.487    
        8.404       8.328       8.258       8.163       8.011       7.860       7.732       7.587       7.364       6.987    
        6.473       5.982       5.658       5.413       5.097       4.623       4.132       3.768       3.497       3.189    
        2.859       2.519       2.134       1.808       1.438       1.061      0.6765      0.4019      0.2212       0.000    
   7    10.00       9.932       9.872       9.823       9.761       9.698       9.637       9.587       9.529       9.474    
        9.419       9.345       9.248       9.143       9.036       8.935       8.804       8.666       8.554       8.453    
        8.367       8.293       8.232       8.116       7.962       7.832       7.703       7.512       7.165       6.686    
        6.194       5.794       5.570       5.349       4.982       4.540       4.207       3.850       3.550       3.347    
        3.031       2.666       2.213       1.748       1.334      0.9218      0.5830      0.4050      0.2085       0.000    
   8    10.00       9.931       9.878       9.821       9.760       9.703       9.650       9.599       9.547       9.494    
        9.421       9.328       9.232       9.133       9.035       8.922       8.760       8.616       8.524       8.428    
        8.332       8.267       8.180       8.059       7.925       7.790       7.578       7.284       6.854       6.435    
        6.060       5.742       5.533       5.279       4.889       4.520       4.219       3.954       3.717       3.481    
        3.172       2.711       2.155       1.659       1.228      0.8634      0.6175      0.3968      0.1902       0.000    
   9    10.00       9.942       9.877       9.815       9.770       9.723       9.670       9.616       9.558       9.502    
        9.419       9.312       9.210       9.110       9.007       8.875       8.720       8.587       8.487       8.390    
        8.305       8.223       8.106       7.992       7.871       7.709       7.410       7.018       6.616       6.308    
        5.997       5.725       5.493       5.175       4.810       4.497       4.266       4.066       3.853       3.593    
        3.222       2.719       2.152       1.658       1.238      0.8829      0.6233      0.4005      0.2047       0.000    
  10    10.00       9.940       9.872       9.821       9.779       9.734       9.686       9.640       9.573       9.491    
        9.390       9.280       9.183       9.090       8.984       8.824       8.661       8.547       8.455       8.362    
        8.282       8.173       8.044       7.917       7.779       7.554       7.181       6.772       6.422       6.173    
        5.967       5.730       5.453       5.127       4.779       4.510       4.327       4.152       3.921       3.623    
        3.199       2.677       2.158       1.735       1.341      0.9722      0.6430      0.4254      0.2286       0.000    
  11    10.00       9.927       9.872       9.830       9.789       9.750       9.706       9.642       9.552       9.461    
        9.361       9.253       9.164       9.055       8.913       8.761       8.627       8.525       8.440       8.347    
        8.232       8.094       7.927       7.783       7.562       7.254       6.933       6.622       6.319       6.125    
        5.963       5.671       5.361       5.090       4.817       4.600       4.407       4.183       3.898       3.538    
        3.140       2.736       2.236       1.818       1.443       1.076      0.7226      0.4178      0.1752       0.000    
  12    10.00       9.929       9.878       9.834       9.799       9.759       9.709       9.621       9.517       9.430    
        9.338       9.227       9.119       8.991       8.867       8.729       8.600       8.511       8.420       8.296    
        8.114       7.915       7.720       7.523       7.233       6.997       6.800       6.500       6.240       6.078    
        5.892       5.628       5.362       5.104       4.898       4.691       4.443       4.170       3.824       3.462    
        3.123       2.757       2.274       1.863       1.509       1.125      0.7606      0.3942      0.1308       0.000    
  13    10.00       9.943       9.895       9.848       9.807       9.760       9.681       9.580       9.483       9.394    
        9.292       9.186       9.075       8.944       8.808       8.679       8.585       8.479       8.363       8.134    
        7.866       7.656       7.441       7.183       6.956       6.831       6.614       6.348       6.193       6.040    
        5.815       5.575       5.361       5.156       4.973       4.781       4.483       4.112       3.777       3.434    
        3.109       2.729       2.211       1.830       1.525       1.116      0.6997      0.3407      0.1043       0.000    
  14    10.00       9.956       9.915       9.866       9.808       9.732       9.630       9.530       9.443       9.347    
        9.243       9.145       9.021       8.886       8.768       8.656       8.522       8.391       8.173       7.838    
        7.580       7.374       7.092       6.884       6.767       6.650       6.437       6.263       6.120       5.964    
        5.762       5.572       5.410       5.221       5.021       4.823       4.490       4.084       3.737       3.383    
        3.049       2.577       2.084       1.783       1.438       1.071      0.7017      0.3159      8.9957E-02   0.000    
  15    10.00       9.965       9.922       9.868       9.800       9.689       9.567       9.479       9.398       9.305    
        9.224       9.124       8.969       8.818       8.711       8.548       8.383       8.245       7.921       7.555    
        7.317       7.046       6.800       6.711       6.638       6.500       6.317       6.152       6.035       5.908    
        5.741       5.595       5.453       5.283       5.081       4.839       4.452       4.004       3.639       3.315    
        2.957       2.480       2.090       1.715       1.304      0.9801      0.6277      0.2900      9.8094E-02   0.000    
  16    10.00       9.971       9.925       9.859       9.759       9.628       9.520       9.450       9.380       9.287    
        9.191       9.048       8.861       8.717       8.570       8.385       8.274       8.009       7.555       7.228    
        7.010       6.770       6.670       6.611       6.495       6.322       6.175       6.081       6.005       5.890    
        5.743       5.606       5.487       5.317       5.074       4.755       4.317       3.931       3.638       3.293    
        2.877       2.408       1.989       1.581       1.228      0.8689      0.5637      0.2932      0.1046       0.000    
  17    10.00       9.967       9.912       9.824       9.712       9.577       9.482       9.422       9.339       9.243    
        9.078       8.883       8.729       8.585       8.400       8.218       7.994       7.574       7.184       6.970    
        6.792       6.652       6.580       6.462       6.287       6.161       6.108       6.062       5.985       5.862    
        5.732       5.608       5.481       5.318       4.984       4.569       4.230       3.972       3.685       3.268    
        2.741       2.282       1.894       1.511       1.102      0.7254      0.4809      0.2665      0.1110       0.000    
  18    10.00       9.954       9.884       9.782       9.636       9.523       9.456       9.369       9.271       9.130    
        8.925       8.766       8.623       8.410       8.172       7.924       7.609       7.233       6.985       6.814    
        6.675       6.551       6.438       6.281       6.155       6.108       6.081       6.041       5.956       5.838    
        5.721       5.595       5.435       5.187       4.848       4.509       4.235       4.022       3.664       3.154    
        2.646       2.166       1.775       1.416       1.023      0.6696      0.4067      0.2228      0.1040       0.000    
  19    10.00       9.938       9.858       9.710       9.566       9.501       9.418       9.306       9.189       9.031    
        8.851       8.695       8.472       8.173       7.923       7.676       7.331       7.015       6.852       6.739    
        6.592       6.438       6.311       6.176       6.103       6.074       6.043       5.990       5.902       5.802    
        5.692       5.554       5.344       5.084       4.799       4.507       4.268       3.996       3.492       2.992    
        2.590       2.100       1.676       1.327      0.9405      0.6037      0.3661      0.2115      0.1059       0.000    
  20    10.00       9.920       9.797       9.645       9.539       9.466       9.375       9.256       9.118       8.973    
        8.788       8.559       8.258       7.982       7.759       7.460       7.140       6.973       6.835       6.681    
        6.523       6.363       6.208       6.106       6.055       6.013       5.959       5.906       5.827       5.739    
        5.635       5.497       5.285       5.044       4.781       4.525       4.270       3.850       3.321       2.897    
        2.454       1.979       1.604       1.254      0.8946      0.5425      0.3180      0.2134      0.1078       0.000    
  21    10.00       9.874       9.748       9.624       9.514       9.432       9.333       9.184       9.045       8.906    
        8.667       8.381       8.099       7.870       7.629       7.338       7.107       6.961       6.803       6.635    
        6.443       6.262       6.126       6.022       5.943       5.876       5.833       5.788       5.711       5.643    
        5.560       5.419       5.231       5.013       4.772       4.522       4.162       3.736       3.274       2.769    
        2.323       1.879       1.554       1.234      0.7769      0.4577      0.3256      0.2375      0.1141       0.000    
  22    10.00       9.856       9.708       9.588       9.496       9.398       9.255       9.108       8.985       8.803    
        8.552       8.253       8.008       7.817       7.552       7.283       7.086       6.935       6.778       6.577    
        6.357       6.174       6.000       5.844       5.741       5.693       5.662       5.609       5.576       5.533    
        5.460       5.340       5.190       4.983       4.749       4.504       4.124       3.690       3.147       2.649    
        2.264       1.861       1.501       1.026      0.6380      0.4582      0.3442      0.2288      9.0778E-02   0.000    
  23    10.00       9.825       9.681       9.582       9.482       9.337       9.178       9.063       8.910       8.720    
        8.465       8.198       8.008       7.766       7.479       7.243       7.076       6.939       6.762       6.521    
        6.286       6.072       5.844       5.571       5.328       5.286       5.360       5.393       5.427       5.422    
        5.374       5.276       5.136       4.963       4.734       4.471       4.111       3.569       2.996       2.586    
        2.217       1.760       1.246      0.8354      0.6212      0.4695      0.3431      0.2175      0.1012       0.000    
  24    10.00       9.802       9.698       9.585       9.444       9.287       9.161       9.037       8.886       8.667    
        8.431       8.222       8.013       7.721       7.416       7.229       7.092       6.950       6.737       6.495    
        6.262       6.017       5.669       5.043       4.096       4.432       4.874       5.144       5.275       5.312    
        5.291       5.211       5.095       4.915       4.694       4.426       3.979       3.405       2.918       2.483    
        2.036       1.554       1.101      0.7950      0.6169      0.4660      0.3347      0.2535      0.1395       0.000    
  25    10.00       9.828       9.719       9.582       9.435       9.294       9.165       9.046       8.861       8.643    
        8.444       8.243       7.986       7.664       7.427       7.257       7.106       6.939       6.741       6.518    
        6.269       6.026       5.395       4.054      0.9826       3.503       4.454       4.920       5.150       5.232    
        5.226       5.167       5.045       4.834       4.599       4.279       3.821       3.271       2.828       2.358    
        1.843       1.390       1.021      0.7849      0.6407      0.5005      0.3655      0.2692      0.1757       0.000    
  26    10.00       9.853       9.750       9.604       9.452       9.328       9.194       9.043       8.853       8.682    
        8.511       8.241       7.915       7.640       7.468       7.318       7.139       6.923       6.713       6.522    
        6.332       6.069       5.495       4.533       3.514       4.039       4.595       4.930       5.121       5.199    
        5.180       5.118       4.973       4.765       4.538       4.191       3.595       3.092       2.723       2.153    
        1.597       1.225       1.009      0.8506      0.6975      0.5422      0.4018      0.2942      0.1756       0.000    
  27    10.00       9.886       9.762       9.637       9.501       9.357       9.223       9.077       8.906       8.741    
        8.508       8.188       7.905       7.682       7.532       7.363       7.127       6.891       6.722       6.572    
        6.415       6.148       5.725       5.206       4.656       4.692       4.890       5.062       5.171       5.192    
        5.152       5.078       4.938       4.728       4.426       3.893       3.340       2.953       2.394       1.842    
        1.448       1.207       1.050      0.9164      0.7752      0.5962      0.4290      0.3211      0.2157       0.000    
  28    10.00       9.896       9.791       9.672       9.549       9.412       9.273       9.125       8.962       8.769    
        8.481       8.189       7.943       7.730       7.575       7.402       7.202       6.975       6.756       6.609    
        6.472       6.284       6.008       5.633       5.298       5.150       5.164       5.234       5.241       5.212    
        5.137       5.042       4.878       4.594       4.160       3.617       3.161       2.642       2.099       1.737    
        1.453       1.256       1.101      0.9676      0.8225      0.6512      0.4858      0.3649      0.2224       0.000    
  29    10.00       9.901       9.802       9.713       9.593       9.468       9.334       9.184       9.009       8.749    
        8.465       8.207       7.972       7.796       7.616       7.429       7.247       7.067       6.862       6.678    
        6.533       6.377       6.191       5.967       5.667       5.502       5.435       5.395       5.346       5.234    
        5.109       4.940       4.742       4.363       3.868       3.399       2.941       2.429       2.021       1.761    
        1.531       1.313       1.143       1.014      0.8725      0.6969      0.5265      0.3853      0.2245       0.000    
  30    10.00       9.910       9.827       9.749       9.645       9.529       9.408       9.240       9.021       8.754    
        8.459       8.195       7.998       7.822       7.642       7.463       7.311       7.161       6.978       6.784    
        6.615       6.474       6.315       6.154       5.958       5.772       5.685       5.557       5.433       5.247    
        5.026       4.763       4.500       4.117       3.735       3.305       2.840       2.377       2.082       1.846    
        1.585       1.371       1.209       1.054      0.8946      0.7392      0.5607      0.4013      0.2424       0.000    
  31    10.00       9.925       9.853       9.780       9.704       9.612       9.479       9.278       9.021       8.743    
        8.457       8.211       8.022       7.840       7.680       7.514       7.359       7.244       7.067       6.882    
        6.722       6.575       6.434       6.274       6.129       5.983       5.840       5.684       5.472       5.210    
        4.886       4.578       4.320       4.037       3.668       3.229       2.792       2.416       2.181       1.968    
        1.698       1.452       1.261       1.098      0.9397      0.7751      0.5964      0.4284      0.2357       0.000    
  32    10.00       9.936       9.882       9.817       9.742       9.658       9.525       9.295       9.052       8.797    
        8.493       8.236       8.046       7.874       7.710       7.568       7.434       7.289       7.144       6.971    
        6.798       6.639       6.489       6.327       6.202       6.102       5.944       5.725       5.423       5.084    
        4.766       4.496       4.246       3.986       3.638       3.248       2.884       2.557       2.306       2.066    
        1.813       1.556       1.354       1.163      0.9819      0.8333      0.6503      0.4284      0.2127       0.000    
  33    10.00       9.945       9.900       9.848       9.775       9.678       9.506       9.283       9.079       8.840    
        8.541       8.284       8.086       7.895       7.739       7.621       7.501       7.357       7.198       7.029    
        6.851       6.677       6.496       6.348       6.250       6.150       5.936       5.635       5.327       5.029    
        4.737       4.506       4.266       3.951       3.628       3.281       2.971       2.708       2.444       2.182    
        1.946       1.703       1.481       1.280       1.079      0.9036      0.6981      0.4367      0.2057       0.000    
  34    10.00       9.950       9.920       9.874       9.783       9.648       9.481       9.315       9.105       8.843    
        8.576       8.322       8.106       7.912       7.776       7.684       7.555       7.405       7.225       7.061    
        6.889       6.682       6.504       6.372       6.267       6.112       5.852       5.593       5.293       4.971    
        4.730       4.541       4.317       4.010       3.689       3.375       3.090       2.854       2.585       2.321    
        2.097       1.874       1.639       1.434       1.221       1.014      0.7532      0.4837      0.2550       0.000    
  35    10.00       9.959       9.923       9.864       9.751       9.607       9.484       9.342       9.146       8.860    
        8.573       8.333       8.111       7.947       7.835       7.731       7.590       7.418       7.238       7.052    
        6.864       6.671       6.489       6.362       6.245       6.094       5.836       5.534       5.217       4.919    
        4.747       4.560       4.326       4.092       3.822       3.493       3.209       3.019       2.748       2.456    
        2.246       2.023       1.799       1.598       1.361       1.130      0.8675      0.5789      0.2893       0.000    
  36    10.00       9.956       9.905       9.838       9.724       9.587       9.477       9.341       9.142       8.871    
        8.568       8.305       8.139       8.013       7.905       7.770       7.595       7.421       7.218       6.964    
        6.765       6.605       6.453       6.341       6.233       6.051       5.768       5.461       5.143       4.891    
        4.733       4.574       4.363       4.146       3.916       3.618       3.338       3.131       2.895       2.581    
        2.346       2.120       1.892       1.726       1.498       1.242      0.9802      0.6789      0.3453       0.000    
  37    10.00       9.941       9.885       9.812       9.696       9.570       9.444       9.312       9.127       8.833    
        8.524       8.309       8.208       8.085       7.939       7.796       7.586       7.365       7.095       6.832    
        6.697       6.571       6.425       6.303       6.171       5.945       5.686       5.361       5.091       4.916    
        4.763       4.593       4.379       4.191       3.954       3.670       3.450       3.251       2.989       2.676    
        2.395       2.175       1.994       1.809       1.592       1.355       1.104      0.7661      0.4150       0.000    
  38    10.00       9.934       9.861       9.782       9.674       9.550       9.409       9.271       9.072       8.798    
        8.561       8.389       8.260       8.143       7.971       7.739       7.490       7.204       6.908       6.752    
        6.648       6.487       6.337       6.237       6.083       5.856       5.545       5.261       5.115       4.977    
        4.807       4.617       4.415       4.225       3.993       3.735       3.539       3.336       3.024       2.698    
        2.454       2.251       2.067       1.882       1.689       1.461       1.201      0.8765      0.4547       0.000    
  39    10.00       9.916       9.841       9.762       9.656       9.516       9.363       9.215       9.033       8.811    
        8.624       8.495       8.346       8.171       7.899       7.587       7.271       6.963       6.790       6.699    
        6.543       6.366       6.259       6.163       6.014       5.752       5.458       5.287       5.161       5.015    
        4.831       4.653       4.449       4.247       4.051       3.839       3.613       3.377       3.057       2.735    
        2.480       2.276       2.133       1.986       1.777       1.543       1.282      0.9286      0.4547       0.000    
  40    10.00       9.901       9.828       9.748       9.639       9.492       9.334       9.184       9.029       8.844    
        8.688       8.573       8.376       8.079       7.723       7.372       7.055       6.852       6.745       6.622    
        6.446       6.296       6.204       6.079       5.907       5.694       5.510       5.342       5.194       5.055    
        4.886       4.688       4.482       4.293       4.114       3.900       3.657       3.420       3.072       2.722    
        2.491       2.322       2.173       2.047       1.835       1.575       1.335      0.9648      0.4763       0.000    
  41    10.00       9.908       9.822       9.732       9.612       9.478       9.339       9.204       9.054       8.887    
        8.738       8.591       8.309       7.924       7.532       7.215       6.972       6.805       6.691       6.546    
        6.366       6.241       6.131       5.998       5.851       5.704       5.572       5.411       5.233       5.074    
        4.921       4.734       4.527       4.356       4.168       3.960       3.712       3.382       2.997       2.728    
        2.541       2.365       2.228       2.069       1.846       1.588       1.376       1.024      0.5243       0.000    
  42    10.00       9.910       9.814       9.731       9.626       9.500       9.361       9.210       9.075       8.944    
        8.759       8.485       8.128       7.730       7.379       7.139       6.929       6.773       6.637       6.463    
        6.298       6.180       6.067       5.975       5.854       5.749       5.625       5.440       5.250       5.108    
        4.976       4.773       4.552       4.391       4.231       3.998       3.679       3.284       2.943       2.738    
        2.589       2.440       2.271       2.064       1.832       1.625       1.411       1.066      0.5485       0.000    
  43    10.00       9.911       9.822       9.737       9.653       9.541       9.401       9.251       9.101       8.909    
        8.634       8.316       7.952       7.571       7.302       7.102       6.904       6.738       6.573       6.400    
        6.248       6.137       6.056       5.985       5.881       5.767       5.646       5.464       5.295       5.181    
        5.013       4.790       4.583       4.425       4.240       3.955       3.580       3.200       2.963       2.802    
        2.644       2.483       2.276       2.053       1.842       1.641       1.449       1.063      0.4788       0.000    
  44    10.00       9.905       9.824       9.750       9.657       9.570       9.450       9.265       9.060       8.789    
        8.510       8.176       7.779       7.503       7.296       7.074       6.858       6.666       6.487       6.333    
        6.225       6.139       6.065       5.993       5.902       5.786       5.643       5.501       5.371       5.226    
        5.065       4.864       4.630       4.407       4.191       3.899       3.509       3.181       2.991       2.835    
        2.684       2.506       2.299       2.100       1.878       1.656       1.405      0.9100      0.4022       0.000    
  45    10.00       9.905       9.838       9.753       9.665       9.587       9.410       9.197       8.953       8.686    
        8.451       8.051       7.683       7.477       7.265       7.021       6.775       6.579       6.422       6.313    
        6.237       6.162       6.085       5.998       5.901       5.794       5.675       5.555       5.448       5.300    
        5.106       4.892       4.655       4.386       4.141       3.824       3.458       3.200       3.044       2.887    
        2.691       2.486       2.304       2.124       1.931       1.692       1.267      0.7628      0.3863       0.000    
  46    10.00       9.921       9.850       9.759       9.661       9.513       9.326       9.148       8.926       8.665    
        8.326       7.958       7.663       7.406       7.189       6.948       6.702       6.549       6.432       6.333    
        6.263       6.193       6.101       5.997       5.902       5.807       5.710       5.604       5.497       5.360    
        5.179       4.956       4.692       4.388       4.047       3.707       3.441       3.265       3.092       2.912    
        2.686       2.472       2.291       2.147       1.939       1.605       1.136      0.7184      0.3650       0.000    
  47    10.00       9.939       9.872       9.777       9.608       9.428       9.268       9.116       8.916       8.590    
        8.225       7.883       7.599       7.383       7.151       6.883       6.672       6.536       6.444       6.362    
        6.287       6.205       6.114       6.012       5.917       5.836       5.751       5.645       5.522       5.386    
        5.227       5.027       4.687       4.284       3.964       3.714       3.483       3.332       3.173       2.923    
        2.654       2.429       2.261       2.143       1.883       1.485       1.054      0.6912      0.3548       0.000    
  48    10.00       9.946       9.875       9.733       9.562       9.413       9.242       9.088       8.875       8.530    
        8.133       7.823       7.593       7.336       7.065       6.826       6.667       6.534       6.445       6.385    
        6.309       6.211       6.111       6.022       5.947       5.878       5.797       5.680       5.533       5.376    
        5.210       4.982       4.630       4.299       4.020       3.772       3.556       3.385       3.180       2.880    
        2.596       2.415       2.275       2.055       1.707       1.351       1.006      0.6961      0.3745       0.000    
  49    10.00       9.943       9.842       9.714       9.574       9.401       9.229       9.056       8.791       8.427    
        8.085       7.795       7.517       7.273       7.065       6.840       6.635       6.515       6.456       6.397    
        6.327       6.216       6.104       6.031       5.969       5.915       5.823       5.681       5.516       5.365    
        5.192       4.913       4.615       4.394       4.138       3.847       3.585       3.379       3.142       2.823    
        2.593       2.435       2.226       1.894       1.585       1.294      0.9949      0.6960      0.3732       0.000    
  50    10.00       9.935       9.830       9.700       9.573       9.411       9.218       9.003       8.724       8.436    
        8.078       7.715       7.458       7.264       7.088       6.834       6.607       6.517       6.464       6.405    
        6.334       6.220       6.106       6.036       5.983       5.933       5.828       5.666       5.498       5.355    
        5.177       4.890       4.660       4.461       4.192       3.904       3.630       3.347       3.024       2.757    
        2.638       2.459       2.136       1.803       1.574       1.292       1.009      0.6816      0.3039       0.000    

 HEAD WILL BE SAVED ON UNIT   51 AT END OF TIME STEP  18, STRESS PERIOD    2

 DRAWDOWN WILL BE SAVED ON UNIT   52 AT END OF TIME STEP  18, STRESS PERIOD    2
1
  VOLUMETRIC BUDGET FOR ENTIRE MODEL AT END OF TIME STEP 18 IN STRESS PERIOD   2
  ------------------------------------------------------------------------------

     CUMULATIVE VOLUMES      L**3       RATES FOR THIS TIME STEP      L**3/T
     ------------------                 ------------------------

           IN:                                      IN:
           ---                                      ---
             STORAGE =        8996.2949               STORAGE =         498.9764
       CONSTANT HEAD =       11348.2988         CONSTANT HEAD =         598.0789
               WELLS =           0.0000                 WELLS =           0.0000

            TOTAL IN =       20344.5938              TOTAL IN =        1097.0554

          OUT:                                     OUT:
          ----                                     ----
             STORAGE =       9.4320E-03               STORAGE =           0.0000
       CONSTANT HEAD =       11344.5850         CONSTANT HEAD =         597.0558
               WELLS =        9000.0000                 WELLS =         500.0000

           TOTAL OUT =       20344.5938             TOTAL OUT =        1097.0558

            IN - OUT =           0.0000              IN - OUT =      -3.6621E-04

 PERCENT DISCREPANCY =           0.00     PERCENT DISCREPANCY =           0.00






          TIME SUMMARY AT END OF TIME STEP  18 IN STRESS PERIOD    2
                    SECONDS     MINUTES      HOURS       DAYS        YEARS
                    -----------------------------------------------------------
   TIME STEP LENGTH  86400.      1440.0      24.000      1.0000     2.73785E-03
 STRESS PERIOD TIME 1.55520E+06  25920.      432.00      18.000     4.92813E-02
         TOTAL TIME 1.64160E+06  27360.      456.00      19.000     5.20192E-02
1
 
 SOLVING FOR HEAD 

 OUTPUT CONTROL FOR STRESS PERIOD    2   TIME STEP  19
    SAVE HEAD FOR ALL LAYERS
    SAVE DRAWDOWN FOR ALL LAYERS
    SAVE BUDGET
    PRINT HEAD FOR ALL LAYERS
    PRINT BUDGET
 UBDSV1 SAVING "         STORAGE" ON UNIT  53 AT TIME STEP 19, STRESS PERIOD   2
 UBDSV2 SAVING "   CONSTANT HEAD" ON UNIT  53 AT TIME STEP 19, STRESS PERIOD   2
 UBDSV1 SAVING "FLOW RIGHT FACE " ON UNIT  53 AT TIME STEP 19, STRESS PERIOD   2
 UBDSV1 SAVING "FLOW FRONT FACE " ON UNIT  53 AT TIME STEP 19, STRESS PERIOD   2
1
              HEAD IN LAYER   1 AT END OF TIME STEP  19 IN STRESS PERIOD    2
  ---------------------------------------------------------------------------

            1           2           3           4           5           6           7           8           9          10
           11          12          13          14          15          16          17          18          19          20
           21          22          23          24          25          26          27          28          29          30
           31          32          33          34          35          36          37          38          39          40
           41          42          43          44          45          46          47          48          49          50
 ........................................................................................................................
   1    10.00       9.959       9.902       9.836       9.772       9.699       9.630       9.562       9.477       9.393    
        9.328       9.264       9.199       9.135       9.032       8.908       8.769       8.660       8.603       8.537    
        8.457       8.393       8.330       8.255       8.156       7.959       7.736       7.580       7.427       7.282    
        7.094       6.793       6.408       5.981       5.539       5.069       4.605       4.218       3.713       3.165    
        2.715       2.284       1.807       1.408       1.161      0.9523      0.7867      0.6669      0.4476       0.000    
   2    10.00       9.959       9.906       9.840       9.775       9.711       9.642       9.553       9.459       9.391    
        9.334       9.280       9.225       9.146       9.028       8.898       8.768       8.660       8.602       8.527    
        8.448       8.400       8.348       8.271       8.145       7.953       7.751       7.590       7.434       7.294    
        7.083       6.768       6.365       5.879       5.408       4.953       4.551       4.177       3.664       3.134    
        2.682       2.198       1.763       1.449       1.217       1.037      0.8316      0.6491      0.3621       0.000    
   3    10.00       9.953       9.901       9.842       9.785       9.720       9.632       9.538       9.472       9.410    
        9.347       9.298       9.249       9.173       9.052       8.892       8.750       8.663       8.594       8.519    
        8.454       8.404       8.352       8.249       8.113       7.942       7.767       7.640       7.460       7.275    
        7.011       6.638       6.180       5.710       5.291       4.866       4.472       4.071       3.539       3.048    
        2.660       2.213       1.814       1.526       1.295       1.109      0.8654      0.5801      0.2630       0.000    
   4    10.00       9.953       9.902       9.845       9.780       9.705       9.615       9.543       9.486       9.422    
        9.367       9.325       9.271       9.185       9.068       8.898       8.750       8.668       8.592       8.525    
        8.455       8.393       8.327       8.221       8.086       7.934       7.776       7.620       7.461       7.252    
        6.921       6.431       5.946       5.589       5.237       4.797       4.323       3.854       3.429       3.056    
        2.692       2.277       1.900       1.639       1.379       1.142      0.8409      0.5219      0.2500       0.000    
   5    10.00       9.950       9.898       9.834       9.769       9.699       9.618       9.555       9.496       9.437    
        9.389       9.348       9.278       9.178       9.049       8.894       8.769       8.679       8.604       8.514    
        8.432       8.366       8.285       8.181       8.061       7.906       7.749       7.606       7.444       7.193    
        6.723       6.179       5.790       5.509       5.160       4.682       4.192       3.765       3.444       3.106    
        2.748       2.364       1.989       1.746       1.467       1.124      0.7657      0.4655      0.2341       0.000    
   6    10.00       9.943       9.882       9.828       9.769       9.693       9.624       9.571       9.509       9.453    
        9.407       9.358       9.270       9.157       9.045       8.915       8.789       8.686       8.588       8.485    
        8.403       8.326       8.256       8.162       8.009       7.858       7.730       7.585       7.363       6.986    
        6.472       5.980       5.656       5.411       5.095       4.622       4.132       3.767       3.496       3.189    
        2.858       2.519       2.134       1.808       1.438       1.061      0.6764      0.4019      0.2212       0.000    
   7    10.00       9.932       9.872       9.822       9.761       9.698       9.637       9.586       9.529       9.474    
        9.418       9.344       9.248       9.142       9.036       8.934       8.803       8.665       8.552       8.451    
        8.365       8.291       8.230       8.114       7.959       7.830       7.701       7.510       7.162       6.684    
        6.192       5.792       5.568       5.347       4.980       4.539       4.206       3.849       3.550       3.346    
        3.031       2.665       2.213       1.747       1.334      0.9217      0.5830      0.4050      0.2085       0.000    
   8    10.00       9.931       9.878       9.821       9.759       9.703       9.650       9.599       9.546       9.494    
        9.421       9.327       9.232       9.132       9.034       8.921       8.759       8.614       8.523       8.426    
        8.330       8.265       8.178       8.056       7.922       7.787       7.575       7.281       6.850       6.431    
        6.057       5.739       5.530       5.277       4.887       4.518       4.217       3.953       3.716       3.480    
        3.172       2.711       2.155       1.659       1.228      0.8634      0.6175      0.3968      0.1902       0.000    
   9    10.00       9.942       9.877       9.815       9.770       9.723       9.670       9.616       9.558       9.502    
        9.418       9.312       9.209       9.110       9.006       8.873       8.718       8.585       8.485       8.387    
        8.302       8.220       8.103       7.989       7.867       7.705       7.406       7.013       6.611       6.303    
        5.992       5.721       5.490       5.172       4.807       4.495       4.264       4.065       3.852       3.592    
        3.221       2.719       2.151       1.658       1.238      0.8829      0.6232      0.4005      0.2047       0.000    
  10    10.00       9.940       9.871       9.821       9.779       9.734       9.686       9.639       9.572       9.490    
        9.390       9.279       9.182       9.089       8.983       8.822       8.659       8.544       8.452       8.360    
        8.279       8.169       8.040       7.913       7.774       7.549       7.175       6.765       6.415       6.167    
        5.961       5.725       5.448       5.123       4.776       4.507       4.325       4.150       3.920       3.622    
        3.198       2.676       2.157       1.735       1.341      0.9722      0.6430      0.4254      0.2286       0.000    
  11    10.00       9.927       9.872       9.830       9.789       9.750       9.706       9.642       9.552       9.460    
        9.360       9.253       9.163       9.053       8.911       8.759       8.624       8.522       8.438       8.344    
        8.228       8.090       7.922       7.777       7.555       7.246       6.924       6.613       6.311       6.117    
        5.956       5.664       5.356       5.085       4.813       4.597       4.404       4.181       3.897       3.537    
        3.139       2.735       2.235       1.818       1.442       1.076      0.7226      0.4178      0.1752       0.000    
  12    10.00       9.929       9.878       9.834       9.799       9.759       9.709       9.620       9.516       9.429    
        9.337       9.226       9.118       8.990       8.865       8.726       8.597       8.508       8.417       8.292    
        8.108       7.908       7.712       7.514       7.222       6.986       6.789       6.489       6.230       6.069    
        5.883       5.620       5.355       5.098       4.893       4.687       4.440       4.168       3.823       3.461    
        3.123       2.756       2.273       1.863       1.509       1.124      0.7606      0.3942      0.1308       0.000    
  13    10.00       9.943       9.895       9.848       9.806       9.760       9.681       9.579       9.482       9.394    
        9.291       9.185       9.074       8.942       8.806       8.676       8.582       8.475       8.358       8.127    
        7.857       7.646       7.429       7.170       6.941       6.816       6.599       6.333       6.180       6.028    
        5.804       5.565       5.352       5.149       4.967       4.776       4.479       4.110       3.775       3.433    
        3.108       2.729       2.211       1.829       1.525       1.116      0.6997      0.3407      0.1043       0.000    
  14    10.00       9.956       9.915       9.866       9.808       9.731       9.630       9.529       9.443       9.347    
        9.242       9.143       9.020       8.884       8.765       8.652       8.518       8.385       8.166       7.828    
        7.568       7.360       7.076       6.866       6.749       6.633       6.420       6.246       6.104       5.949    
        5.749       5.560       5.400       5.213       5.014       4.817       4.485       4.081       3.735       3.382    
        3.048       2.577       2.084       1.783       1.438       1.071      0.7016      0.3159      8.9955E-02   0.000    
  15    10.00       9.965       9.922       9.868       9.799       9.689       9.566       9.478       9.398       9.304    
        9.223       9.123       8.967       8.815       8.708       8.543       8.377       8.237       7.911       7.540    
        7.301       7.027       6.779       6.690       6.618       6.480       6.296       6.133       6.017       5.891    
        5.726       5.581       5.441       5.273       5.072       4.832       4.447       4.001       3.637       3.314    
        2.956       2.480       2.090       1.715       1.304      0.9800      0.6276      0.2900      9.8090E-02   0.000    
  16    10.00       9.971       9.925       9.859       9.759       9.628       9.519       9.450       9.379       9.286    
        9.189       9.046       8.858       8.713       8.565       8.379       8.266       7.998       7.539       7.208    
        6.989       6.747       6.647       6.588       6.472       6.299       6.152       6.060       5.985       5.871    
        5.727       5.592       5.473       5.306       5.065       4.748       4.313       3.928       3.636       3.291    
        2.876       2.407       1.988       1.581       1.228      0.8689      0.5636      0.2932      0.1046       0.000    
  17    10.00       9.967       9.912       9.824       9.712       9.577       9.481       9.421       9.339       9.242    
        9.076       8.880       8.725       8.580       8.393       8.209       7.983       7.557       7.162       6.946    
        6.768       6.627       6.555       6.437       6.262       6.136       6.084       6.039       5.963       5.842    
        5.714       5.592       5.467       5.305       4.974       4.563       4.225       3.968       3.682       3.266    
        2.740       2.282       1.894       1.511       1.101      0.7254      0.4808      0.2665      0.1110       0.000    
  18    10.00       9.954       9.884       9.782       9.635       9.523       9.456       9.368       9.270       9.129    
        8.923       8.762       8.617       8.403       8.162       7.910       7.591       7.211       6.961       6.789    
        6.649       6.525       6.411       6.255       6.129       6.082       6.055       6.016       5.933       5.816    
        5.702       5.578       5.420       5.175       4.838       4.501       4.230       4.018       3.660       3.152    
        2.645       2.165       1.775       1.416       1.023      0.6696      0.4067      0.2228      0.1040       0.000    
  19    10.00       9.938       9.857       9.710       9.565       9.500       9.417       9.305       9.188       9.029    
        8.848       8.691       8.465       8.162       7.909       7.659       7.310       6.990       6.826       6.712    
        6.564       6.410       6.283       6.148       6.075       6.047       6.016       5.963       5.877       5.779    
        5.670       5.535       5.328       5.071       4.789       4.499       4.262       3.991       3.489       2.990    
        2.589       2.100       1.676       1.327      0.9404      0.6037      0.3661      0.2115      0.1059       0.000    
  20    10.00       9.920       9.797       9.644       9.539       9.465       9.374       9.255       9.117       8.971    
        8.784       8.552       8.249       7.969       7.743       7.440       7.116       6.948       6.808       6.653    
        6.495       6.334       6.179       6.077       6.026       5.985       5.931       5.878       5.800       5.714    
        5.612       5.476       5.268       5.030       4.770       4.517       4.264       3.846       3.319       2.895    
        2.453       1.979       1.604       1.254      0.8945      0.5425      0.3179      0.2134      0.1078       0.000    
  21    10.00       9.874       9.748       9.624       9.514       9.432       9.333       9.183       9.043       8.903    
        8.663       8.373       8.087       7.855       7.611       7.317       7.083       6.935       6.776       6.607    
        6.414       6.232       6.096       5.992       5.913       5.846       5.804       5.759       5.682       5.616    
        5.535       5.397       5.212       4.998       4.760       4.513       4.156       3.732       3.271       2.767    
        2.322       1.878       1.554       1.233      0.7768      0.4576      0.3256      0.2375      0.1141       0.000    
  22    10.00       9.856       9.708       9.588       9.495       9.397       9.254       9.106       8.983       8.799    
        8.546       8.244       7.995       7.802       7.533       7.260       7.061       6.909       6.751       6.548    
        6.327       6.143       5.969       5.813       5.710       5.662       5.631       5.578       5.545       5.503    
        5.434       5.317       5.170       4.967       4.736       4.494       4.117       3.686       3.145       2.648    
        2.263       1.860       1.501       1.026      0.6380      0.4582      0.3442      0.2288      9.0774E-02   0.000    
  23    10.00       9.824       9.681       9.582       9.481       9.336       9.177       9.061       8.907       8.716    
        8.458       8.187       7.995       7.750       7.459       7.220       7.052       6.913       6.734       6.492    
        6.256       6.040       5.812       5.538       5.295       5.252       5.326       5.360       5.395       5.391    
        5.346       5.251       5.115       4.946       4.721       4.460       4.105       3.565       2.995       2.585    
        2.217       1.759       1.245      0.8353      0.6211      0.4695      0.3431      0.2175      0.1012       0.000    
  24    10.00       9.801       9.698       9.585       9.443       9.286       9.159       9.034       8.882       8.661    
        8.423       8.212       8.000       7.705       7.395       7.206       7.067       6.924       6.709       6.465    
        6.231       5.985       5.636       5.008       4.059       4.395       4.838       5.109       5.241       5.280    
        5.262       5.185       5.074       4.898       4.680       4.416       3.973       3.402       2.916       2.482    
        2.035       1.554       1.101      0.7950      0.6168      0.4660      0.3346      0.2534      0.1395       0.000    
  25    10.00       9.827       9.718       9.582       9.434       9.293       9.163       9.044       8.858       8.637    
        8.437       8.233       7.973       7.647       7.407       7.235       7.082       6.913       6.714       6.489    
        6.238       5.994       5.361       4.017      0.9416       3.463       4.416       4.883       5.114       5.200    
        5.197       5.141       5.023       4.817       4.586       4.270       3.815       3.268       2.827       2.357    
        1.843       1.390       1.021      0.7849      0.6407      0.5005      0.3655      0.2692      0.1757       0.000    
  26    10.00       9.853       9.750       9.603       9.451       9.326       9.192       9.041       8.850       8.677    
        8.504       8.231       7.902       7.623       7.449       7.296       7.115       6.897       6.685       6.493    
        6.301       6.037       5.460       4.496       3.474       3.999       4.555       4.891       5.085       5.166    
        5.151       5.091       4.951       4.748       4.525       4.182       3.590       3.090       2.722       2.152    
        1.597       1.225       1.009      0.8506      0.6975      0.5422      0.4018      0.2942      0.1756       0.000    
  27    10.00       9.886       9.761       9.636       9.500       9.355       9.221       9.075       8.902       8.736    
        8.502       8.178       7.891       7.666       7.514       7.342       7.104       6.865       6.694       6.543    
        6.385       6.117       5.691       5.169       4.617       4.652       4.850       5.023       5.135       5.160    
        5.124       5.053       4.917       4.711       4.414       3.887       3.337       2.951       2.393       1.841    
        1.448       1.207       1.050      0.9164      0.7752      0.5962      0.4290      0.3210      0.2157       0.000    
  28    10.00       9.896       9.791       9.672       9.548       9.411       9.271       9.123       8.959       8.765    
        8.475       8.180       7.931       7.715       7.558       7.383       7.181       6.950       6.729       6.581    
        6.442       6.253       5.975       5.598       5.260       5.111       5.125       5.196       5.206       5.180    
        5.110       5.018       4.858       4.579       4.151       3.612       3.158       2.641       2.099       1.737    
        1.453       1.256       1.101      0.9676      0.8225      0.6512      0.4857      0.3649      0.2224       0.000    
  29    10.00       9.901       9.801       9.712       9.593       9.467       9.332       9.182       9.007       8.745    
        8.458       8.198       7.960       7.782       7.600       7.411       7.227       7.044       6.836       6.651    
        6.504       6.347       6.160       5.933       5.631       5.465       5.398       5.359       5.313       5.205    
        5.084       4.920       4.726       4.353       3.862       3.396       2.939       2.428       2.020       1.761    
        1.530       1.313       1.143       1.014      0.8724      0.6968      0.5265      0.3853      0.2245       0.000    
  30    10.00       9.910       9.827       9.748       9.644       9.528       9.407       9.239       9.018       8.749    
        8.453       8.187       7.987       7.809       7.627       7.447       7.293       7.140       6.955       6.759    
        6.588       6.445       6.286       6.123       5.925       5.739       5.652       5.525       5.404       5.223    
        5.006       4.748       4.489       4.110       3.731       3.303       2.838       2.376       2.081       1.845    
        1.585       1.371       1.209       1.054      0.8946      0.7392      0.5606      0.4013      0.2424       0.000    
  31    10.00       9.925       9.853       9.779       9.703       9.611       9.478       9.277       9.019       8.739    
        8.452       8.203       8.012       7.829       7.667       7.499       7.342       7.226       7.046       6.860    
        6.698       6.549       6.407       6.247       6.102       5.955       5.812       5.657       5.448       5.191    
        4.872       4.568       4.313       4.032       3.665       3.227       2.791       2.416       2.181       1.968    
        1.698       1.452       1.261       1.098      0.9396      0.7751      0.5963      0.4284      0.2357       0.000    
  32    10.00       9.936       9.881       9.817       9.742       9.658       9.524       9.294       9.050       8.794    
        8.488       8.229       8.037       7.864       7.698       7.555       7.419       7.273       7.126       6.951    
        6.777       6.616       6.466       6.304       6.179       6.078       5.919       5.703       5.405       5.071    
        4.757       4.489       4.241       3.982       3.636       3.247       2.883       2.557       2.305       2.065    
        1.813       1.556       1.354       1.163      0.9819      0.8333      0.6503      0.4284      0.2126       0.000    
  33    10.00       9.945       9.900       9.847       9.775       9.678       9.506       9.281       9.077       8.837    
        8.537       8.278       8.078       7.886       7.729       7.610       7.488       7.342       7.182       7.012    
        6.832       6.657       6.475       6.327       6.230       6.129       5.917       5.620       5.316       5.020    
        4.731       4.501       4.262       3.948       3.627       3.279       2.970       2.707       2.444       2.181    
        1.946       1.703       1.481       1.280       1.079      0.9036      0.6981      0.4367      0.2057       0.000    
  34    10.00       9.950       9.920       9.874       9.783       9.648       9.480       9.315       9.103       8.841    
        8.572       8.317       8.100       7.904       7.767       7.674       7.544       7.393       7.211       7.046    
        6.874       6.665       6.487       6.355       6.250       6.096       5.839       5.582       5.285       4.965    
        4.726       4.538       4.314       4.008       3.687       3.374       3.090       2.853       2.585       2.321    
        2.097       1.874       1.639       1.434       1.221       1.014      0.7532      0.4837      0.2550       0.000    
  35    10.00       9.959       9.923       9.864       9.750       9.607       9.484       9.342       9.145       8.859    
        8.570       8.329       8.107       7.941       7.828       7.723       7.581       7.408       7.227       7.041    
        6.852       6.658       6.476       6.349       6.232       6.083       5.826       5.526       5.211       4.916    
        4.744       4.558       4.324       4.091       3.821       3.492       3.209       3.019       2.748       2.456    
        2.246       2.023       1.799       1.598       1.361       1.130      0.8675      0.5789      0.2893       0.000    
  36    10.00       9.956       9.905       9.838       9.724       9.587       9.476       9.341       9.141       8.870    
        8.566       8.302       8.135       8.008       7.899       7.763       7.588       7.413       7.209       6.956    
        6.756       6.597       6.444       6.332       6.223       6.043       5.761       5.457       5.140       4.889    
        4.731       4.572       4.362       4.145       3.915       3.618       3.338       3.131       2.895       2.581    
        2.346       2.120       1.892       1.726       1.497       1.242      0.9802      0.6789      0.3453       0.000    
  37    10.00       9.941       9.885       9.812       9.696       9.570       9.444       9.312       9.127       8.832    
        8.522       8.306       8.205       8.081       7.934       7.791       7.580       7.359       7.089       6.826    
        6.691       6.565       6.418       6.296       6.165       5.940       5.682       5.358       5.090       4.915    
        4.762       4.592       4.378       4.191       3.953       3.670       3.450       3.251       2.988       2.676    
        2.395       2.175       1.994       1.809       1.592       1.355       1.104      0.7661      0.4150       0.000    
  38    10.00       9.934       9.861       9.782       9.674       9.550       9.409       9.270       9.071       8.797    
        8.559       8.387       8.257       8.139       7.967       7.735       7.486       7.201       6.904       6.748    
        6.644       6.482       6.333       6.232       6.079       5.853       5.543       5.260       5.114       4.976    
        4.806       4.617       4.414       4.225       3.992       3.735       3.539       3.336       3.024       2.698    
        2.454       2.251       2.067       1.882       1.689       1.461       1.201      0.8765      0.4547       0.000    
  39    10.00       9.916       9.841       9.762       9.655       9.515       9.362       9.215       9.032       8.810    
        8.623       8.493       8.344       8.169       7.896       7.585       7.269       6.961       6.788       6.697    
        6.540       6.363       6.256       6.160       6.012       5.750       5.457       5.286       5.160       5.014    
        4.831       4.652       4.448       4.246       4.051       3.839       3.613       3.376       3.056       2.735    
        2.480       2.276       2.133       1.986       1.777       1.543       1.282      0.9286      0.4547       0.000    
  40    10.00       9.901       9.828       9.748       9.639       9.492       9.334       9.184       9.029       8.843    
        8.687       8.572       8.374       8.078       7.722       7.371       7.054       6.851       6.744       6.620    
        6.444       6.295       6.203       6.078       5.906       5.693       5.509       5.342       5.193       5.055    
        4.885       4.688       4.481       4.293       4.114       3.900       3.657       3.420       3.072       2.722    
        2.491       2.322       2.173       2.047       1.835       1.575       1.335      0.9648      0.4763       0.000    
  41    10.00       9.908       9.822       9.732       9.612       9.478       9.339       9.204       9.054       8.886    
        8.737       8.590       8.308       7.923       7.531       7.214       6.971       6.804       6.690       6.545    
        6.365       6.240       6.130       5.998       5.851       5.704       5.571       5.411       5.233       5.073    
        4.921       4.734       4.527       4.356       4.168       3.960       3.712       3.382       2.997       2.728    
        2.541       2.365       2.228       2.069       1.846       1.588       1.376       1.024      0.5243       0.000    
  42    10.00       9.910       9.814       9.731       9.626       9.500       9.361       9.210       9.075       8.944    
        8.759       8.484       8.128       7.730       7.378       7.138       6.929       6.772       6.637       6.463    
        6.297       6.179       6.066       5.974       5.854       5.748       5.625       5.440       5.249       5.108    
        4.976       4.773       4.552       4.391       4.231       3.998       3.679       3.284       2.943       2.738    
        2.589       2.440       2.271       2.064       1.832       1.625       1.411       1.066      0.5485       0.000    
  43    10.00       9.911       9.822       9.737       9.653       9.541       9.400       9.250       9.101       8.909    
        8.634       8.316       7.952       7.570       7.302       7.101       6.903       6.737       6.573       6.399    
        6.247       6.136       6.055       5.985       5.881       5.767       5.645       5.464       5.295       5.180    
        5.012       4.790       4.583       4.424       4.240       3.955       3.580       3.200       2.963       2.802    
        2.644       2.483       2.276       2.053       1.842       1.641       1.449       1.063      0.4788       0.000    
  44    10.00       9.905       9.824       9.750       9.657       9.570       9.450       9.265       9.060       8.789    
        8.510       8.176       7.778       7.503       7.296       7.074       6.858       6.665       6.486       6.332    
        6.225       6.139       6.065       5.992       5.902       5.786       5.643       5.501       5.370       5.226    
        5.065       4.864       4.630       4.407       4.191       3.899       3.509       3.181       2.991       2.835    
        2.684       2.506       2.299       2.100       1.878       1.656       1.405      0.9100      0.4022       0.000    
  45    10.00       9.905       9.838       9.753       9.665       9.587       9.410       9.196       8.953       8.686    
        8.451       8.051       7.683       7.477       7.265       7.021       6.775       6.578       6.422       6.313    
        6.237       6.162       6.084       5.998       5.901       5.794       5.675       5.555       5.448       5.300    
        5.106       4.892       4.654       4.385       4.140       3.824       3.458       3.200       3.044       2.887    
        2.691       2.486       2.304       2.124       1.931       1.692       1.267      0.7628      0.3863       0.000    
  46    10.00       9.921       9.850       9.759       9.661       9.513       9.326       9.148       8.926       8.665    
        8.326       7.958       7.663       7.406       7.189       6.948       6.702       6.549       6.432       6.333    
        6.263       6.193       6.100       5.997       5.901       5.807       5.710       5.604       5.496       5.360    
        5.179       4.956       4.692       4.388       4.047       3.707       3.441       3.265       3.092       2.912    
        2.686       2.472       2.291       2.147       1.939       1.605       1.136      0.7184      0.3650       0.000    
  47    10.00       9.939       9.872       9.777       9.608       9.428       9.268       9.116       8.916       8.590    
        8.225       7.883       7.599       7.383       7.151       6.883       6.672       6.536       6.443       6.362    
        6.286       6.205       6.113       6.012       5.917       5.836       5.751       5.645       5.522       5.386    
        5.226       5.027       4.687       4.284       3.964       3.714       3.483       3.332       3.173       2.923    
        2.654       2.429       2.261       2.143       1.883       1.485       1.054      0.6912      0.3548       0.000    
  48    10.00       9.946       9.875       9.733       9.562       9.413       9.242       9.088       8.875       8.530    
        8.133       7.823       7.593       7.336       7.065       6.826       6.667       6.534       6.445       6.385    
        6.309       6.211       6.110       6.022       5.947       5.878       5.797       5.679       5.533       5.375    
        5.210       4.982       4.630       4.299       4.020       3.772       3.556       3.385       3.180       2.880    
        2.596       2.415       2.275       2.055       1.707       1.351       1.006      0.6961      0.3745       0.000    
  49    10.00       9.943       9.842       9.714       9.574       9.401       9.229       9.056       8.791       8.427    
        8.085       7.795       7.517       7.273       7.065       6.840       6.635       6.515       6.456       6.397    
        6.327       6.216       6.104       6.031       5.969       5.915       5.823       5.681       5.515       5.365    
        5.192       4.913       4.615       4.394       4.138       3.847       3.585       3.379       3.142       2.823    
        2.593       2.435       2.226       1.894       1.585       1.294      0.9949      0.6960      0.3732       0.000    
  50    10.00       9.935       9.830       9.700       9.573       9.411       9.218       9.003       8.724       8.436    
        8.078       7.715       7.458       7.263       7.088       6.834       6.606       6.517       6.464       6.405    
        6.334       6.220       6.106       6.035       5.983       5.932       5.828       5.666       5.498       5.354    
        5.177       4.890       4.660       4.461       4.192       3.904       3.630       3.347       3.024       2.757    
        2.638       2.459       2.136       1.803       1.574       1.292       1.009      0.6816      0.3039       0.000    

 HEAD WILL BE SAVED ON UNIT   51 AT END OF TIME STEP  19, STRESS PERIOD    2

 DRAWDOWN WILL BE SAVED ON UNIT   52 AT END OF TIME STEP  19, STRESS PERIOD    2
1
  VOLUMETRIC BUDGET FOR ENTIRE MODEL AT END OF TIME STEP 19 IN STRESS PERIOD   2
  ------------------------------------------------------------------------------

     CUMULATIVE VOLUMES      L**3       RATES FOR THIS TIME STEP      L**3/T
     ------------------                 ------------------------

           IN:                                      IN:
           ---                                      ---
             STORAGE =        9494.9912               STORAGE =         498.6962
       CONSTANT HEAD =       11946.6455         CONSTANT HEAD =         598.3467
               WELLS =           0.0000                 WELLS =           0.0000

            TOTAL IN =       21441.6367              TOTAL IN =        1097.0430

          OUT:                                     OUT:
          ----                                     ----
             STORAGE =       9.4320E-03               STORAGE =           0.0000
       CONSTANT HEAD =       11941.6279         CONSTANT HEAD =         597.0431
               WELLS =        9500.0000                 WELLS =         500.0000

           TOTAL OUT =       21441.6367             TOTAL OUT =        1097.0431

            IN - OUT =           0.0000              IN - OUT =      -1.2207E-04

 PERCENT DISCREPANCY =           0.00     PERCENT DISCREPANCY =           0.00






          TIME SUMMARY AT END OF TIME STEP  19 IN STRESS PERIOD    2
                    SECONDS     MINUTES      HOURS       DAYS        YEARS
                    -----------------------------------------------------------
   TIME STEP LENGTH  86400.      1440.0      24.000      1.0000     2.73785E-03
 STRESS PERIOD TIME 1.64160E+06  27360.      456.00      19.000     5.20192E-02
         TOTAL TIME 1.72800E+06  28800.      480.00      20.000     5.47570E-02
1
 
 SOLVING FOR HEAD 

 OUTPUT CONTROL FOR STRESS PERIOD    2   TIME STEP  20
    SAVE HEAD FOR ALL LAYERS
    SAVE DRAWDOWN FOR ALL LAYERS
    SAVE BUDGET
    PRINT HEAD FOR ALL LAYERS
    PRINT BUDGET
 UBDSV1 SAVING "         STORAGE" ON UNIT  53 AT TIME STEP 20, STRESS PERIOD   2
 UBDSV2 SAVING "   CONSTANT HEAD" ON UNIT  53 AT TIME STEP 20, STRESS PERIOD   2
 UBDSV1 SAVING "FLOW RIGHT FACE " ON UNIT  53 AT TIME STEP 20, STRESS PERIOD   2
 UBDSV1 SAVING "FLOW FRONT FACE " ON UNIT  53 AT TIME STEP 20, STRESS PERIOD   2
1
              HEAD IN LAYER   1 AT END OF TIME STEP  20 IN STRESS PERIOD    2
  ---------------------------------------------------------------------------

            1           2           3           4           5           6           7           8           9          10
           11          12          13          14          15          16          17          18          19          20
           21          22          23          24          25          26          27          28          29          30
           31          32          33          34          35          36          37          38          39          40
           41          42          43          44          45          46          47          48          49          50
 ........................................................................................................................
   1    10.00       9.959       9.902       9.836       9.772       9.699       9.630       9.562       9.476       9.393    
        9.327       9.264       9.198       9.134       9.031       8.907       8.768       8.659       8.602       8.536    
        8.456       8.392       8.329       8.254       8.155       7.958       7.735       7.579       7.426       7.282    
        7.093       6.792       6.407       5.981       5.539       5.069       4.604       4.218       3.713       3.164    
        2.715       2.284       1.807       1.408       1.161      0.9523      0.7867      0.6669      0.4476       0.000    
   2    10.00       9.958       9.906       9.840       9.775       9.711       9.642       9.553       9.459       9.390    
        9.334       9.279       9.225       9.146       9.027       8.897       8.767       8.659       8.601       8.526    
        8.447       8.399       8.347       8.270       8.144       7.952       7.750       7.589       7.434       7.293    
        7.083       6.768       6.364       5.879       5.407       4.953       4.551       4.177       3.663       3.134    
        2.682       2.198       1.763       1.449       1.217       1.037      0.8316      0.6491      0.3621       0.000    
   3    10.00       9.953       9.901       9.842       9.785       9.720       9.632       9.538       9.472       9.410    
        9.347       9.297       9.249       9.172       9.052       8.891       8.749       8.662       8.593       8.518    
        8.453       8.403       8.350       8.248       8.112       7.941       7.766       7.639       7.459       7.274    
        7.011       6.638       6.180       5.710       5.291       4.866       4.471       4.071       3.539       3.048    
        2.660       2.213       1.814       1.526       1.295       1.109      0.8653      0.5801      0.2630       0.000    
   4    10.00       9.953       9.902       9.845       9.780       9.704       9.614       9.543       9.485       9.422    
        9.366       9.325       9.271       9.185       9.067       8.897       8.749       8.667       8.591       8.524    
        8.454       8.392       8.326       8.219       8.085       7.933       7.774       7.619       7.460       7.251    
        6.921       6.431       5.946       5.589       5.237       4.797       4.323       3.854       3.429       3.056    
        2.692       2.276       1.900       1.639       1.379       1.142      0.8409      0.5219      0.2500       0.000    
   5    10.00       9.950       9.898       9.834       9.769       9.699       9.617       9.555       9.496       9.437    
        9.389       9.348       9.277       9.177       9.048       8.893       8.768       8.678       8.603       8.513    
        8.431       8.364       8.284       8.179       8.059       7.905       7.747       7.604       7.443       7.191    
        6.722       6.177       5.789       5.508       5.159       4.681       4.191       3.764       3.444       3.106    
        2.748       2.364       1.989       1.746       1.467       1.124      0.7656      0.4655      0.2341       0.000    
   6    10.00       9.943       9.882       9.828       9.769       9.692       9.624       9.571       9.509       9.452    
        9.407       9.358       9.269       9.157       9.044       8.914       8.788       8.685       8.586       8.484    
        8.401       8.324       8.254       8.160       8.007       7.856       7.729       7.583       7.361       6.984    
        6.470       5.979       5.655       5.410       5.094       4.621       4.131       3.767       3.495       3.188    
        2.858       2.518       2.134       1.808       1.438       1.061      0.6764      0.4019      0.2212       0.000    
   7    10.00       9.932       9.872       9.822       9.761       9.697       9.636       9.586       9.529       9.474    
        9.418       9.344       9.247       9.141       9.035       8.933       8.802       8.663       8.551       8.449    
        8.363       8.289       8.228       8.112       7.957       7.828       7.699       7.508       7.160       6.682    
        6.189       5.789       5.566       5.345       4.979       4.537       4.204       3.848       3.549       3.346    
        3.030       2.665       2.212       1.747       1.334      0.9217      0.5830      0.4050      0.2085       0.000    
   8    10.00       9.931       9.878       9.821       9.759       9.703       9.650       9.599       9.546       9.494    
        9.421       9.326       9.231       9.131       9.033       8.920       8.758       8.612       8.521       8.423    
        8.327       8.263       8.175       8.053       7.919       7.784       7.572       7.278       6.847       6.427    
        6.053       5.736       5.527       5.275       4.884       4.516       4.216       3.951       3.715       3.479    
        3.171       2.711       2.155       1.659       1.228      0.8633      0.6174      0.3968      0.1902       0.000    
   9    10.00       9.942       9.877       9.815       9.770       9.723       9.669       9.615       9.557       9.501    
        9.418       9.311       9.208       9.109       9.005       8.872       8.716       8.583       8.483       8.385    
        8.299       8.217       8.100       7.985       7.863       7.701       7.402       7.009       6.606       6.298    
        5.987       5.717       5.486       5.169       4.804       4.493       4.262       4.063       3.850       3.591    
        3.220       2.718       2.151       1.658       1.238      0.8828      0.6232      0.4005      0.2047       0.000    
  10    10.00       9.940       9.871       9.821       9.779       9.734       9.685       9.639       9.572       9.490    
        9.389       9.279       9.181       9.088       8.982       8.821       8.657       8.542       8.449       8.357    
        8.276       8.166       8.036       7.909       7.769       7.543       7.168       6.759       6.409       6.160    
        5.955       5.720       5.443       5.119       4.772       4.504       4.322       4.148       3.918       3.621    
        3.197       2.676       2.157       1.735       1.341      0.9721      0.6429      0.4254      0.2286       0.000    
  11    10.00       9.927       9.872       9.830       9.788       9.750       9.706       9.642       9.551       9.460    
        9.360       9.252       9.162       9.052       8.909       8.756       8.622       8.519       8.434       8.340    
        8.224       8.085       7.916       7.771       7.548       7.238       6.915       6.605       6.303       6.109    
        5.948       5.658       5.350       5.080       4.808       4.593       4.401       4.178       3.895       3.536    
        3.138       2.734       2.235       1.818       1.442       1.076      0.7226      0.4178      0.1752       0.000    
  12    10.00       9.929       9.878       9.834       9.799       9.759       9.709       9.620       9.516       9.429    
        9.336       9.225       9.116       8.988       8.863       8.724       8.594       8.504       8.413       8.288    
        8.103       7.901       7.704       7.505       7.212       6.974       6.778       6.478       6.219       6.059    
        5.874       5.612       5.348       5.092       4.888       4.683       4.436       4.165       3.821       3.460    
        3.122       2.756       2.273       1.863       1.509       1.124      0.7606      0.3942      0.1308       0.000    
  13    10.00       9.943       9.895       9.848       9.806       9.759       9.680       9.579       9.482       9.393    
        9.290       9.183       9.072       8.940       8.803       8.673       8.579       8.471       8.354       8.121    
        7.848       7.636       7.418       7.156       6.926       6.802       6.585       6.319       6.167       6.016    
        5.793       5.556       5.344       5.141       4.961       4.770       4.475       4.107       3.773       3.432    
        3.107       2.728       2.211       1.829       1.525       1.116      0.6996      0.3407      0.1043       0.000    
  14    10.00       9.956       9.915       9.866       9.808       9.731       9.630       9.529       9.442       9.346    
        9.241       9.142       9.018       8.881       8.762       8.649       8.513       8.380       8.159       7.817    
        7.555       7.346       7.059       6.848       6.732       6.615       6.403       6.229       6.088       5.934    
        5.735       5.548       5.389       5.204       5.006       4.811       4.481       4.078       3.733       3.381    
        3.047       2.576       2.084       1.783       1.438       1.070      0.7016      0.3159      8.9952E-02   0.000    
  15    10.00       9.965       9.922       9.868       9.799       9.688       9.566       9.478       9.397       9.303    
        9.222       9.121       8.965       8.812       8.704       8.538       8.370       8.230       7.900       7.525    
        7.284       7.008       6.758       6.669       6.598       6.460       6.277       6.113       5.999       5.874    
        5.710       5.567       5.429       5.263       5.064       4.826       4.442       3.998       3.634       3.312    
        2.954       2.479       2.090       1.714       1.304      0.9800      0.6276      0.2900      9.8086E-02   0.000    
  16    10.00       9.971       9.925       9.859       9.759       9.628       9.519       9.449       9.378       9.285    
        9.188       9.044       8.855       8.709       8.559       8.372       8.258       7.987       7.523       7.189    
        6.968       6.725       6.625       6.566       6.450       6.276       6.130       6.038       5.965       5.853    
        5.710       5.577       5.460       5.294       5.055       4.741       4.308       3.924       3.633       3.289    
        2.874       2.407       1.988       1.581       1.227      0.8688      0.5636      0.2931      0.1046       0.000    
  17    10.00       9.967       9.912       9.824       9.711       9.576       9.481       9.421       9.338       9.240    
        9.074       8.877       8.720       8.574       8.385       8.200       7.971       7.540       7.141       6.923    
        6.744       6.603       6.531       6.412       6.238       6.111       6.059       6.016       5.942       5.823    
        5.696       5.576       5.452       5.292       4.964       4.555       4.220       3.964       3.679       3.264    
        2.739       2.281       1.893       1.511       1.101      0.7253      0.4808      0.2665      0.1110       0.000    
  18    10.00       9.954       9.884       9.782       9.635       9.522       9.455       9.367       9.269       9.127    
        8.920       8.758       8.612       8.395       8.151       7.897       7.574       7.189       6.937       6.764    
        6.624       6.499       6.386       6.228       6.102       6.056       6.030       5.992       5.910       5.795    
        5.682       5.560       5.404       5.162       4.828       4.494       4.224       4.013       3.657       3.150    
        2.644       2.165       1.775       1.416       1.023      0.6695      0.4067      0.2228      0.1040       0.000    
  19    10.00       9.938       9.857       9.710       9.565       9.500       9.416       9.304       9.186       9.027    
        8.844       8.686       8.458       8.151       7.895       7.642       7.289       6.966       6.801       6.686    
        6.538       6.383       6.256       6.120       6.048       6.020       5.990       5.938       5.853       5.756    
        5.649       5.516       5.312       5.058       4.778       4.491       4.256       3.986       3.486       2.988    
        2.588       2.099       1.676       1.326      0.9403      0.6036      0.3661      0.2115      0.1059       0.000    
  20    10.00       9.920       9.797       9.644       9.538       9.465       9.373       9.254       9.115       8.968    
        8.780       8.546       8.239       7.956       7.727       7.420       7.092       6.923       6.782       6.626    
        6.467       6.306       6.151       6.048       5.998       5.957       5.903       5.851       5.774       5.689    
        5.589       5.456       5.251       5.016       4.759       4.508       4.257       3.841       3.316       2.893    
        2.452       1.978       1.603       1.254      0.8944      0.5424      0.3179      0.2134      0.1078       0.000    
  21    10.00       9.874       9.748       9.624       9.514       9.431       9.332       9.182       9.041       8.900    
        8.657       8.364       8.075       7.841       7.593       7.296       7.059       6.910       6.749       6.579    
        6.386       6.203       6.067       5.963       5.884       5.817       5.775       5.730       5.654       5.589    
        5.510       5.375       5.193       4.983       4.748       4.503       4.149       3.727       3.269       2.766    
        2.321       1.878       1.554       1.233      0.7768      0.4576      0.3256      0.2375      0.1141       0.000    
  22    10.00       9.856       9.708       9.588       9.495       9.396       9.253       9.104       8.980       8.795    
        8.540       8.234       7.982       7.786       7.514       7.238       7.037       6.884       6.724       6.520    
        6.298       6.113       5.939       5.782       5.680       5.632       5.601       5.548       5.516       5.475    
        5.407       5.293       5.150       4.950       4.723       4.484       4.110       3.682       3.142       2.646    
        2.262       1.860       1.500       1.026      0.6379      0.4582      0.3442      0.2287      9.0769E-02   0.000    
  23    10.00       9.824       9.681       9.582       9.481       9.335       9.175       9.059       8.903       8.711    
        8.451       8.177       7.982       7.734       7.439       7.198       7.027       6.887       6.707       6.464    
        6.226       6.010       5.781       5.506       5.262       5.220       5.294       5.328       5.364       5.362    
        5.319       5.227       5.094       4.928       4.707       4.450       4.097       3.561       2.993       2.584    
        2.216       1.759       1.245      0.8352      0.6211      0.4695      0.3431      0.2175      0.1012       0.000    
  24    10.00       9.801       9.698       9.584       9.443       9.284       9.158       9.032       8.879       8.656    
        8.415       8.202       7.987       7.688       7.375       7.183       7.043       6.898       6.682       6.436    
        6.201       5.954       5.604       4.975       4.024       4.360       4.803       5.075       5.208       5.249    
        5.234       5.160       5.052       4.880       4.666       4.405       3.966       3.399       2.914       2.481    
        2.035       1.554       1.101      0.7949      0.6168      0.4659      0.3346      0.2534      0.1395       0.000    
  25    10.00       9.827       9.718       9.581       9.433       9.291       9.161       9.041       8.854       8.632    
        8.429       8.223       7.959       7.629       7.387       7.213       7.058       6.888       6.687       6.460    
        6.208       5.963       5.328       3.982      0.9025       3.425       4.379       4.847       5.080       5.168    
        5.168       5.115       5.001       4.799       4.572       4.259       3.808       3.264       2.825       2.356    
        1.842       1.390       1.021      0.7848      0.6406      0.5004      0.3655      0.2692      0.1757       0.000    
  26    10.00       9.853       9.750       9.603       9.450       9.325       9.190       9.038       8.846       8.672    
        8.497       8.222       7.888       7.606       7.429       7.275       7.092       6.872       6.658       6.464    
        6.271       6.006       5.427       4.460       3.436       3.960       4.516       4.854       5.050       5.134    
        5.122       5.066       4.930       4.731       4.511       4.172       3.585       3.087       2.720       2.151    
        1.597       1.225       1.009      0.8505      0.6974      0.5422      0.4017      0.2941      0.1756       0.000    
  27    10.00       9.885       9.761       9.636       9.499       9.354       9.220       9.072       8.898       8.731    
        8.495       8.168       7.878       7.650       7.496       7.322       7.081       6.840       6.667       6.515    
        6.356       6.086       5.658       5.134       4.580       4.614       4.812       4.986       5.100       5.129    
        5.096       5.028       4.896       4.694       4.402       3.879       3.333       2.949       2.392       1.841    
        1.448       1.207       1.050      0.9163      0.7751      0.5962      0.4290      0.3210      0.2157       0.000    
  28    10.00       9.896       9.791       9.671       9.547       9.410       9.270       9.120       8.955       8.760    
        8.468       8.170       7.918       7.700       7.541       7.364       7.159       6.926       6.703       6.554    
        6.414       6.223       5.944       5.564       5.224       5.073       5.087       5.160       5.172       5.149    
        5.083       4.994       4.838       4.565       4.141       3.607       3.155       2.639       2.098       1.737    
        1.453       1.256       1.100      0.9675      0.8224      0.6511      0.4857      0.3649      0.2224       0.000    
  29    10.00       9.901       9.801       9.712       9.592       9.466       9.331       9.179       9.003       8.740    
        8.451       8.189       7.949       7.769       7.584       7.393       7.207       7.022       6.812       6.624    
        6.476       6.318       6.129       5.901       5.597       5.430       5.363       5.325       5.280       5.177    
        5.059       4.899       4.709       4.342       3.856       3.393       2.937       2.427       2.020       1.761    
        1.530       1.312       1.143       1.014      0.8724      0.6968      0.5265      0.3853      0.2245       0.000    
  30    10.00       9.910       9.827       9.748       9.644       9.527       9.406       9.237       9.015       8.745    
        8.446       8.178       7.977       7.797       7.613       7.430       7.275       7.120       6.933       6.734    
        6.562       6.418       6.257       6.093       5.894       5.707       5.621       5.494       5.376       5.198    
        4.986       4.733       4.478       4.103       3.726       3.300       2.837       2.375       2.081       1.845    
        1.585       1.371       1.209       1.054      0.8945      0.7391      0.5606      0.4012      0.2424       0.000    
  31    10.00       9.925       9.853       9.779       9.703       9.610       9.477       9.275       9.016       8.735    
        8.446       8.195       8.003       7.817       7.654       7.484       7.325       7.207       7.026       6.837    
        6.674       6.524       6.381       6.220       6.076       5.928       5.785       5.630       5.424       5.171    
        4.858       4.558       4.306       4.027       3.661       3.225       2.790       2.415       2.180       1.968    
        1.698       1.451       1.261       1.098      0.9396      0.7751      0.5963      0.4284      0.2357       0.000    
  32    10.00       9.936       9.881       9.816       9.742       9.657       9.523       9.292       9.048       8.790    
        8.483       8.222       8.029       7.854       7.687       7.542       7.404       7.256       7.108       6.931    
        6.755       6.593       6.442       6.281       6.156       6.055       5.895       5.681       5.388       5.058    
        4.748       4.482       4.236       3.978       3.633       3.245       2.882       2.556       2.305       2.065    
        1.813       1.556       1.354       1.163      0.9818      0.8333      0.6503      0.4284      0.2126       0.000    
  33    10.00       9.945       9.900       9.847       9.774       9.677       9.505       9.280       9.076       8.834    
        8.533       8.272       8.071       7.877       7.719       7.598       7.476       7.328       7.166       6.995    
        6.813       6.637       6.455       6.307       6.209       6.108       5.898       5.605       5.304       5.011    
        4.725       4.496       4.258       3.945       3.624       3.278       2.969       2.706       2.444       2.181    
        1.946       1.703       1.481       1.280       1.079      0.9036      0.6981      0.4367      0.2057       0.000    
  34    10.00       9.950       9.920       9.874       9.782       9.647       9.480       9.314       9.102       8.838    
        8.569       8.312       8.093       7.897       7.758       7.664       7.533       7.381       7.198       7.032    
        6.859       6.649       6.470       6.337       6.232       6.080       5.825       5.571       5.276       4.959    
        4.721       4.534       4.311       4.006       3.686       3.373       3.089       2.853       2.584       2.321    
        2.097       1.874       1.638       1.434       1.221       1.014      0.7532      0.4837      0.2550       0.000    
  35    10.00       9.959       9.923       9.864       9.750       9.606       9.483       9.341       9.143       8.857    
        8.567       8.325       8.101       7.934       7.821       7.715       7.572       7.398       7.216       7.029    
        6.841       6.646       6.464       6.336       6.219       6.071       5.816       5.518       5.206       4.912    
        4.740       4.555       4.322       4.090       3.820       3.492       3.209       3.019       2.748       2.456    
        2.246       2.023       1.799       1.598       1.361       1.130      0.8675      0.5789      0.2893       0.000    
  36    10.00       9.956       9.905       9.838       9.724       9.587       9.476       9.340       9.140       8.869    
        8.564       8.298       8.131       8.003       7.893       7.756       7.580       7.404       7.201       6.947    
        6.748       6.588       6.435       6.322       6.214       6.034       5.755       5.452       5.137       4.886    
        4.729       4.571       4.360       4.144       3.915       3.618       3.337       3.131       2.895       2.581    
        2.346       2.120       1.892       1.726       1.497       1.242      0.9802      0.6789      0.3453       0.000    
  37    10.00       9.941       9.885       9.811       9.696       9.570       9.444       9.311       9.126       8.831    
        8.520       8.303       8.201       8.077       7.929       7.785       7.574       7.353       7.082       6.820    
        6.684       6.558       6.411       6.289       6.158       5.934       5.678       5.355       5.088       4.913    
        4.760       4.591       4.377       4.190       3.953       3.670       3.450       3.250       2.988       2.676    
        2.395       2.175       1.994       1.809       1.592       1.355       1.104      0.7661      0.4150       0.000    
  38    10.00       9.934       9.861       9.782       9.674       9.550       9.409       9.270       9.070       8.796    
        8.557       8.384       8.254       8.136       7.963       7.731       7.482       7.196       6.900       6.743    
        6.639       6.478       6.328       6.227       6.074       5.849       5.540       5.259       5.113       4.975    
        4.805       4.616       4.414       4.224       3.992       3.735       3.539       3.335       3.024       2.698    
        2.454       2.251       2.067       1.882       1.689       1.461       1.201      0.8765      0.4547       0.000    
  39    10.00       9.916       9.841       9.762       9.655       9.515       9.362       9.215       9.032       8.809    
        8.621       8.491       8.342       8.166       7.894       7.582       7.266       6.958       6.785       6.694    
        6.537       6.360       6.253       6.158       6.009       5.748       5.456       5.285       5.159       5.013    
        4.830       4.652       4.448       4.246       4.050       3.839       3.613       3.376       3.056       2.735    
        2.480       2.276       2.133       1.986       1.777       1.543       1.282      0.9286      0.4547       0.000    
  40    10.00       9.901       9.828       9.748       9.639       9.492       9.334       9.184       9.028       8.842    
        8.686       8.571       8.373       8.076       7.721       7.369       7.052       6.849       6.742       6.618    
        6.442       6.293       6.201       6.076       5.904       5.692       5.508       5.341       5.192       5.054    
        4.885       4.687       4.481       4.293       4.114       3.900       3.656       3.420       3.072       2.722    
        2.491       2.322       2.173       2.047       1.835       1.575       1.335      0.9648      0.4763       0.000    
  41    10.00       9.908       9.821       9.732       9.612       9.477       9.338       9.204       9.053       8.886    
        8.737       8.589       8.307       7.922       7.530       7.214       6.970       6.803       6.689       6.544    
        6.364       6.238       6.129       5.997       5.850       5.703       5.570       5.410       5.232       5.073    
        4.921       4.733       4.526       4.355       4.168       3.960       3.712       3.382       2.997       2.728    
        2.541       2.365       2.228       2.069       1.846       1.588       1.376       1.024      0.5243       0.000    
  42    10.00       9.910       9.814       9.731       9.626       9.500       9.361       9.210       9.074       8.944    
        8.758       8.484       8.127       7.729       7.378       7.138       6.928       6.771       6.636       6.462    
        6.297       6.179       6.066       5.974       5.853       5.748       5.625       5.439       5.249       5.108    
        4.975       4.773       4.551       4.391       4.231       3.998       3.679       3.284       2.943       2.738    
        2.589       2.440       2.271       2.064       1.832       1.625       1.411       1.066      0.5485       0.000    
  43    10.00       9.911       9.822       9.737       9.653       9.540       9.400       9.250       9.100       8.908    
        8.634       8.316       7.952       7.570       7.301       7.101       6.903       6.737       6.572       6.399    
        6.247       6.136       6.055       5.985       5.880       5.766       5.645       5.464       5.294       5.180    
        5.012       4.790       4.582       4.424       4.240       3.954       3.580       3.200       2.963       2.802    
        2.644       2.483       2.276       2.053       1.842       1.641       1.449       1.063      0.4788       0.000    
  44    10.00       9.905       9.824       9.750       9.657       9.570       9.450       9.265       9.060       8.789    
        8.509       8.176       7.778       7.502       7.296       7.074       6.857       6.665       6.486       6.332    
        6.225       6.138       6.064       5.992       5.901       5.785       5.643       5.500       5.370       5.226    
        5.064       4.864       4.629       4.407       4.190       3.899       3.509       3.181       2.991       2.835    
        2.684       2.506       2.299       2.100       1.878       1.656       1.405      0.9100      0.4022       0.000    
  45    10.00       9.905       9.838       9.753       9.665       9.586       9.410       9.196       8.953       8.686    
        8.451       8.050       7.683       7.477       7.265       7.021       6.775       6.578       6.422       6.313    
        6.237       6.162       6.084       5.997       5.900       5.794       5.675       5.555       5.448       5.300    
        5.106       4.892       4.654       4.385       4.140       3.824       3.458       3.199       3.044       2.887    
        2.691       2.486       2.304       2.124       1.931       1.692       1.267      0.7628      0.3863       0.000    
  46    10.00       9.921       9.850       9.759       9.661       9.513       9.326       9.148       8.926       8.665    
        8.326       7.958       7.663       7.406       7.189       6.947       6.701       6.548       6.432       6.332    
        6.262       6.193       6.100       5.997       5.901       5.807       5.710       5.603       5.496       5.360    
        5.179       4.956       4.692       4.388       4.047       3.707       3.441       3.265       3.092       2.912    
        2.686       2.472       2.291       2.147       1.939       1.605       1.136      0.7184      0.3650       0.000    
  47    10.00       9.939       9.872       9.777       9.608       9.428       9.268       9.116       8.916       8.590    
        8.225       7.883       7.599       7.383       7.150       6.883       6.672       6.536       6.443       6.361    
        6.286       6.205       6.113       6.012       5.917       5.836       5.751       5.645       5.522       5.386    
        5.226       5.027       4.687       4.284       3.964       3.714       3.483       3.332       3.173       2.923    
        2.654       2.429       2.261       2.143       1.883       1.485       1.054      0.6912      0.3548       0.000    
  48    10.00       9.946       9.875       9.733       9.562       9.413       9.242       9.088       8.875       8.530    
        8.133       7.823       7.593       7.335       7.065       6.826       6.667       6.534       6.445       6.384    
        6.309       6.211       6.110       6.022       5.947       5.878       5.796       5.679       5.533       5.375    
        5.210       4.982       4.630       4.299       4.020       3.772       3.556       3.385       3.180       2.880    
        2.596       2.415       2.275       2.055       1.707       1.351       1.006      0.6961      0.3745       0.000    
  49    10.00       9.943       9.842       9.714       9.574       9.401       9.229       9.056       8.791       8.427    
        8.084       7.795       7.517       7.273       7.065       6.840       6.635       6.515       6.456       6.397    
        6.326       6.216       6.104       6.031       5.969       5.915       5.823       5.681       5.515       5.364    
        5.191       4.913       4.615       4.394       4.138       3.847       3.585       3.378       3.142       2.823    
        2.593       2.435       2.226       1.894       1.585       1.294      0.9949      0.6960      0.3732       0.000    
  50    10.00       9.935       9.830       9.700       9.573       9.411       9.218       9.003       8.724       8.436    
        8.078       7.715       7.458       7.263       7.087       6.834       6.606       6.517       6.464       6.405    
        6.334       6.220       6.106       6.035       5.983       5.932       5.828       5.666       5.498       5.354    
        5.177       4.890       4.660       4.461       4.192       3.904       3.630       3.347       3.024       2.757    
        2.638       2.459       2.136       1.803       1.574       1.292       1.009      0.6816      0.3039       0.000    

 HEAD WILL BE SAVED ON UNIT   51 AT END OF TIME STEP  20, STRESS PERIOD    2

 DRAWDOWN WILL BE SAVED ON UNIT   52 AT END OF TIME STEP  20, STRESS PERIOD    2
1
  VOLUMETRIC BUDGET FOR ENTIRE MODEL AT END OF TIME STEP 20 IN STRESS PERIOD   2
  ------------------------------------------------------------------------------

     CUMULATIVE VOLUMES      L**3       RATES FOR THIS TIME STEP      L**3/T
     ------------------                 ------------------------

           IN:                                      IN:
           ---                                      ---
             STORAGE =        9993.3594               STORAGE =         498.3681
       CONSTANT HEAD =       12545.3047         CONSTANT HEAD =         598.6588
               WELLS =           0.0000                 WELLS =           0.0000

            TOTAL IN =       22538.6641              TOTAL IN =        1097.0269

          OUT:                                     OUT:
          ----                                     ----
             STORAGE =       9.4320E-03               STORAGE =           0.0000
       CONSTANT HEAD =       12538.6543         CONSTANT HEAD =         597.0269
               WELLS =       10000.0000                 WELLS =         500.0000

           TOTAL OUT =       22538.6641             TOTAL OUT =        1097.0269

            IN - OUT =           0.0000              IN - OUT =           0.0000

 PERCENT DISCREPANCY =           0.00     PERCENT DISCREPANCY =           0.00






          TIME SUMMARY AT END OF TIME STEP  20 IN STRESS PERIOD    2
                    SECONDS     MINUTES      HOURS       DAYS        YEARS
                    -----------------------------------------------------------
   TIME STEP LENGTH  86400.      1440.0      24.000      1.0000     2.73785E-03
 STRESS PERIOD TIME 1.72800E+06  28800.      480.00      20.000     5.47570E-02
         TOTAL TIME 1.81440E+06  30240.      504.00      21.000     5.74949E-02
1
 
 SOLVING FOR HEAD 

 OUTPUT CONTROL FOR STRESS PERIOD    2   TIME STEP  21
    SAVE HEAD FOR ALL LAYERS
    SAVE DRAWDOWN FOR ALL LAYERS
    SAVE BUDGET
    PRINT HEAD FOR ALL LAYERS
    PRINT BUDGET
 UBDSV1 SAVING "         STORAGE" ON UNIT  53 AT TIME STEP 21, STRESS PERIOD   2
 UBDSV2 SAVING "   CONSTANT HEAD" ON UNIT  53 AT TIME STEP 21, STRESS PERIOD   2
 UBDSV1 SAVING "FLOW RIGHT FACE " ON UNIT  53 AT TIME STEP 21, STRESS PERIOD   2
 UBDSV1 SAVING "FLOW FRONT FACE " ON UNIT  53 AT TIME STEP 21, STRESS PERIOD   2
1
              HEAD IN LAYER   1 AT END OF TIME STEP  21 IN STRESS PERIOD    2
  ---------------------------------------------------------------------------

            1           2           3           4           5           6           7           8           9          10
           11          12          13          14          15          16          17          18          19          20
           21          22          23          24          25          26          27          28          29          30
           31          32          33          34          35          36          37          38          39          40
           41          42          43          44          45          46          47          48          49          50
 ........................................................................................................................
   1    10.00       9.959       9.902       9.836       9.772       9.699       9.630       9.562       9.476       9.392    
        9.327       9.263       9.197       9.134       9.030       8.906       8.767       8.658       8.601       8.534    
        8.455       8.391       8.327       8.253       8.154       7.957       7.734       7.578       7.425       7.281    
        7.093       6.792       6.407       5.980       5.538       5.069       4.604       4.217       3.713       3.164    
        2.714       2.284       1.807       1.408       1.161      0.9522      0.7867      0.6668      0.4476       0.000    
   2    10.00       9.958       9.906       9.840       9.775       9.710       9.642       9.552       9.459       9.390    
        9.334       9.279       9.224       9.145       9.027       8.896       8.766       8.658       8.599       8.525    
        8.445       8.397       8.346       8.269       8.143       7.951       7.749       7.588       7.433       7.292    
        7.082       6.767       6.364       5.879       5.407       4.953       4.550       4.177       3.663       3.134    
        2.682       2.198       1.763       1.449       1.217       1.037      0.8316      0.6491      0.3621       0.000    
   3    10.00       9.953       9.901       9.842       9.785       9.719       9.632       9.538       9.471       9.409    
        9.346       9.297       9.248       9.172       9.051       8.890       8.748       8.661       8.592       8.517    
        8.452       8.402       8.349       8.246       8.111       7.940       7.765       7.638       7.458       7.273    
        7.010       6.637       6.179       5.710       5.290       4.865       4.471       4.071       3.539       3.048    
        2.660       2.213       1.814       1.525       1.295       1.109      0.8653      0.5801      0.2630       0.000    
   4    10.00       9.953       9.902       9.845       9.780       9.704       9.614       9.542       9.485       9.421    
        9.366       9.324       9.270       9.184       9.067       8.896       8.748       8.666       8.589       8.522    
        8.453       8.391       8.324       8.218       8.083       7.931       7.773       7.618       7.459       7.250    
        6.920       6.430       5.945       5.588       5.236       4.797       4.322       3.853       3.428       3.056    
        2.692       2.276       1.899       1.639       1.379       1.142      0.8409      0.5219      0.2500       0.000    
   5    10.00       9.950       9.898       9.834       9.769       9.698       9.617       9.555       9.496       9.436    
        9.388       9.348       9.277       9.176       9.047       8.892       8.767       8.677       8.601       8.512    
        8.429       8.362       8.282       8.177       8.057       7.903       7.746       7.603       7.441       7.190    
        6.721       6.176       5.787       5.507       5.158       4.681       4.190       3.764       3.443       3.105    
        2.747       2.363       1.989       1.746       1.467       1.124      0.7656      0.4655      0.2341       0.000    
   6    10.00       9.943       9.882       9.828       9.768       9.692       9.624       9.570       9.508       9.452    
        9.406       9.357       9.269       9.156       9.043       8.913       8.787       8.684       8.585       8.482    
        8.399       8.322       8.252       8.158       8.005       7.854       7.727       7.581       7.359       6.982    
        6.469       5.977       5.653       5.408       5.093       4.620       4.130       3.766       3.495       3.187    
        2.857       2.518       2.133       1.808       1.438       1.061      0.6764      0.4019      0.2212       0.000    
   7    10.00       9.932       9.872       9.822       9.761       9.697       9.636       9.586       9.528       9.473    
        9.418       9.343       9.246       9.141       9.034       8.932       8.801       8.662       8.549       8.447    
        8.361       8.286       8.225       8.109       7.955       7.825       7.697       7.506       7.157       6.679    
        6.187       5.787       5.563       5.343       4.977       4.535       4.203       3.847       3.548       3.345    
        3.030       2.665       2.212       1.747       1.334      0.9216      0.5830      0.4050      0.2085       0.000    
   8    10.00       9.931       9.878       9.821       9.759       9.703       9.649       9.598       9.546       9.493    
        9.420       9.326       9.230       9.130       9.032       8.919       8.756       8.610       8.518       8.421    
        8.325       8.260       8.172       8.050       7.916       7.781       7.569       7.275       6.843       6.423    
        6.049       5.733       5.524       5.272       4.882       4.514       4.214       3.950       3.714       3.478    
        3.170       2.710       2.155       1.659       1.228      0.8633      0.6174      0.3968      0.1902       0.000    
   9    10.00       9.942       9.877       9.815       9.769       9.722       9.669       9.615       9.557       9.501    
        9.417       9.311       9.207       9.108       9.003       8.870       8.714       8.580       8.480       8.382    
        8.296       8.214       8.096       7.981       7.859       7.697       7.397       7.004       6.601       6.293    
        5.982       5.713       5.482       5.165       4.801       4.490       4.260       4.061       3.849       3.590    
        3.220       2.718       2.151       1.658       1.238      0.8828      0.6232      0.4004      0.2047       0.000    
  10    10.00       9.940       9.871       9.821       9.778       9.733       9.685       9.639       9.572       9.489    
        9.389       9.278       9.180       9.087       8.980       8.819       8.655       8.539       8.446       8.353    
        8.273       8.162       8.032       7.904       7.764       7.538       7.162       6.752       6.402       6.153    
        5.949       5.714       5.438       5.114       4.769       4.501       4.320       4.146       3.916       3.619    
        3.196       2.675       2.157       1.735       1.341      0.9721      0.6429      0.4254      0.2285       0.000    
  11    10.00       9.927       9.872       9.830       9.788       9.750       9.706       9.641       9.551       9.459    
        9.359       9.251       9.161       9.051       8.907       8.754       8.619       8.516       8.431       8.337    
        8.220       8.081       7.911       7.765       7.541       7.229       6.906       6.596       6.294       6.101    
        5.941       5.651       5.344       5.074       4.804       4.590       4.398       4.176       3.893       3.535    
        3.137       2.734       2.235       1.818       1.442       1.076      0.7225      0.4178      0.1752       0.000    
  12    10.00       9.929       9.878       9.834       9.799       9.759       9.709       9.620       9.515       9.428    
        9.336       9.224       9.115       8.986       8.861       8.721       8.591       8.501       8.409       8.283    
        8.097       7.894       7.696       7.496       7.201       6.962       6.767       6.466       6.208       6.050    
        5.865       5.604       5.340       5.086       4.882       4.678       4.433       4.163       3.819       3.458    
        3.121       2.755       2.273       1.862       1.509       1.124      0.7606      0.3942      0.1308       0.000    
  13    10.00       9.943       9.895       9.848       9.806       9.759       9.680       9.579       9.481       9.392    
        9.289       9.182       9.070       8.937       8.801       8.669       8.575       8.467       8.349       8.114    
        7.840       7.625       7.406       7.143       6.912       6.787       6.571       6.305       6.153       6.004    
        5.782       5.546       5.335       5.134       4.954       4.765       4.471       4.104       3.771       3.430    
        3.106       2.728       2.210       1.829       1.524       1.116      0.6996      0.3407      0.1043       0.000    
  14    10.00       9.956       9.915       9.865       9.808       9.731       9.629       9.528       9.441       9.345    
        9.240       9.140       9.015       8.878       8.759       8.645       8.508       8.374       8.151       7.807    
        7.542       7.332       7.043       6.831       6.714       6.598       6.385       6.213       6.072       5.919    
        5.722       5.536       5.379       5.195       4.999       4.805       4.476       4.075       3.730       3.379    
        3.046       2.576       2.083       1.783       1.437       1.070      0.7015      0.3159      8.9947E-02   0.000    
  15    10.00       9.965       9.922       9.868       9.799       9.688       9.565       9.477       9.396       9.302    
        9.220       9.119       8.962       8.808       8.700       8.533       8.364       8.222       7.889       7.511    
        7.267       6.990       6.738       6.649       6.579       6.440       6.257       6.094       5.980       5.857    
        5.695       5.554       5.417       5.252       5.055       4.818       4.437       3.995       3.632       3.310    
        2.953       2.479       2.089       1.714       1.303      0.9799      0.6275      0.2899      9.8080E-02   0.000    
  16    10.00       9.971       9.925       9.858       9.759       9.627       9.518       9.448       9.377       9.283    
        9.186       9.042       8.851       8.704       8.554       8.364       8.250       7.976       7.507       7.170    
        6.948       6.703       6.603       6.544       6.428       6.254       6.108       6.017       5.945       5.834    
        5.694       5.562       5.446       5.283       5.046       4.733       4.303       3.920       3.630       3.287    
        2.873       2.406       1.988       1.580       1.227      0.8687      0.5636      0.2931      0.1046       0.000    
  17    10.00       9.967       9.912       9.824       9.711       9.576       9.480       9.420       9.337       9.239    
        9.072       8.873       8.716       8.568       8.378       8.190       7.958       7.523       7.120       6.901    
        6.721       6.579       6.507       6.389       6.214       6.087       6.036       5.993       5.921       5.804    
        5.679       5.560       5.438       5.280       4.954       4.548       4.214       3.959       3.676       3.262    
        2.737       2.280       1.893       1.511       1.101      0.7252      0.4808      0.2665      0.1109       0.000    
  18    10.00       9.954       9.883       9.782       9.635       9.522       9.455       9.367       9.268       9.125    
        8.916       8.753       8.606       8.387       8.141       7.883       7.556       7.168       6.913       6.739    
        6.598       6.474       6.360       6.203       6.077       6.031       6.005       5.968       5.887       5.774    
        5.663       5.543       5.389       5.149       4.818       4.486       4.218       4.008       3.654       3.148    
        2.642       2.164       1.774       1.416       1.023      0.6695      0.4066      0.2228      0.1040       0.000    
  19    10.00       9.938       9.857       9.710       9.565       9.499       9.416       9.303       9.185       9.024    
        8.841       8.681       8.450       8.140       7.881       7.625       7.268       6.942       6.776       6.660    
        6.511       6.356       6.229       6.094       6.022       5.994       5.965       5.913       5.828       5.733    
        5.629       5.497       5.296       5.045       4.768       4.483       4.249       3.981       3.483       2.986    
        2.587       2.098       1.675       1.326      0.9401      0.6036      0.3661      0.2115      0.1058       0.000    
  20    10.00       9.920       9.797       9.644       9.538       9.464       9.373       9.253       9.113       8.965    
        8.775       8.540       8.229       7.943       7.711       7.400       7.070       6.899       6.757       6.600    
        6.440       6.279       6.124       6.021       5.971       5.930       5.877       5.825       5.748       5.665    
        5.566       5.436       5.233       5.002       4.748       4.499       4.250       3.836       3.313       2.891    
        2.450       1.978       1.603       1.254      0.8943      0.5424      0.3179      0.2134      0.1078       0.000    
  21    10.00       9.874       9.748       9.623       9.513       9.430       9.331       9.180       9.039       8.897    
        8.652       8.356       8.063       7.826       7.575       7.274       7.035       6.885       6.723       6.553    
        6.358       6.175       6.038       5.934       5.856       5.789       5.747       5.702       5.627       5.563    
        5.486       5.353       5.175       4.968       4.736       4.494       4.142       3.723       3.266       2.764    
        2.320       1.877       1.553       1.233      0.7767      0.4576      0.3255      0.2374      0.1141       0.000    
  22    10.00       9.856       9.707       9.587       9.494       9.396       9.251       9.102       8.978       8.791    
        8.533       8.224       7.969       7.771       7.495       7.216       7.013       6.859       6.698       6.493    
        6.269       6.084       5.909       5.753       5.650       5.602       5.571       5.518       5.487       5.447    
        5.382       5.270       5.130       4.934       4.710       4.473       4.103       3.677       3.139       2.645    
        2.261       1.859       1.500       1.026      0.6379      0.4581      0.3442      0.2287      9.0762E-02   0.000    
  23    10.00       9.824       9.680       9.581       9.480       9.334       9.173       9.057       8.900       8.706    
        8.443       8.166       7.969       7.718       7.420       7.176       7.004       6.862       6.681       6.436    
        6.197       5.980       5.751       5.476       5.231       5.188       5.263       5.297       5.334       5.333    
        5.292       5.203       5.073       4.911       4.693       4.439       4.090       3.557       2.990       2.583    
        2.215       1.758       1.245      0.8351      0.6210      0.4694      0.3431      0.2174      0.1012       0.000    
  24    10.00       9.801       9.697       9.584       9.442       9.283       9.155       9.029       8.875       8.650    
        8.407       8.191       7.974       7.671       7.355       7.161       7.020       6.873       6.655       6.408    
        6.172       5.924       5.573       4.943       3.990       4.325       4.769       5.042       5.177       5.219    
        5.206       5.135       5.030       4.862       4.651       4.394       3.959       3.395       2.912       2.480    
        2.034       1.553       1.100      0.7948      0.6167      0.4659      0.3346      0.2534      0.1395       0.000    
  25    10.00       9.827       9.718       9.581       9.432       9.290       9.159       9.039       8.850       8.625    
        8.421       8.213       7.946       7.612       7.367       7.191       7.035       6.863       6.660       6.433    
        6.179       5.933       5.297       3.948      0.8649       3.389       4.343       4.813       5.048       5.138    
        5.140       5.089       4.979       4.782       4.558       4.249       3.802       3.261       2.823       2.355    
        1.842       1.390       1.021      0.7848      0.6406      0.5004      0.3655      0.2692      0.1757       0.000    
  26    10.00       9.853       9.750       9.602       9.449       9.324       9.188       9.035       8.841       8.666    
        8.489       8.211       7.874       7.589       7.410       7.254       7.069       6.847       6.632       6.437    
        6.243       5.976       5.395       4.426       3.400       3.924       4.480       4.819       5.016       5.103    
        5.094       5.041       4.908       4.713       4.497       4.162       3.579       3.084       2.718       2.150    
        1.596       1.224       1.009      0.8504      0.6974      0.5421      0.4017      0.2941      0.1756       0.000    
  27    10.00       9.885       9.761       9.635       9.498       9.353       9.218       9.069       8.895       8.726    
        8.487       8.157       7.864       7.633       7.478       7.302       7.059       6.815       6.641       6.488    
        6.328       6.056       5.626       5.101       4.544       4.577       4.776       4.950       5.066       5.098    
        5.068       5.003       4.875       4.677       4.389       3.872       3.329       2.946       2.391       1.840    
        1.448       1.207       1.050      0.9162      0.7751      0.5961      0.4290      0.3210      0.2157       0.000    
  28    10.00       9.896       9.791       9.671       9.546       9.408       9.268       9.117       8.952       8.755    
        8.460       8.160       7.905       7.684       7.524       7.345       7.138       6.903       6.677       6.527    
        6.386       6.194       5.913       5.531       5.189       5.038       5.052       5.125       5.139       5.120    
        5.056       4.970       4.818       4.550       4.131       3.601       3.152       2.638       2.097       1.736    
        1.453       1.255       1.100      0.9674      0.8223      0.6511      0.4857      0.3648      0.2224       0.000    
  29    10.00       9.901       9.801       9.711       9.591       9.465       9.329       9.177       9.000       8.735    
        8.444       8.180       7.937       7.755       7.568       7.375       7.187       7.001       6.788       6.598    
        6.449       6.290       6.100       5.870       5.564       5.396       5.329       5.292       5.249       5.149    
        5.035       4.879       4.693       4.331       3.849       3.389       2.935       2.426       2.019       1.760    
        1.530       1.312       1.143       1.014      0.8723      0.6968      0.5265      0.3852      0.2245       0.000    
  30    10.00       9.910       9.827       9.748       9.643       9.526       9.404       9.235       9.012       8.741    
        8.440       8.169       7.966       7.784       7.598       7.413       7.256       7.100       6.911       6.710    
        6.536       6.391       6.229       6.064       5.864       5.676       5.591       5.463       5.348       5.174    
        4.966       4.718       4.466       4.096       3.721       3.297       2.835       2.375       2.080       1.845    
        1.584       1.371       1.209       1.054      0.8944      0.7391      0.5606      0.4012      0.2424       0.000    
  31    10.00       9.925       9.853       9.779       9.702       9.609       9.475       9.273       9.014       8.731    
        8.439       8.187       7.993       7.805       7.641       7.469       7.308       7.189       7.006       6.815    
        6.650       6.499       6.355       6.194       6.050       5.902       5.758       5.604       5.400       5.152    
        4.844       4.548       4.298       4.022       3.657       3.223       2.788       2.415       2.180       1.967    
        1.697       1.451       1.261       1.098      0.9395      0.7750      0.5963      0.4284      0.2357       0.000    
  32    10.00       9.936       9.881       9.816       9.741       9.657       9.522       9.291       9.045       8.787    
        8.477       8.215       8.020       7.843       7.675       7.529       7.389       7.239       7.090       6.911    
        6.734       6.571       6.420       6.259       6.133       6.032       5.872       5.660       5.370       5.045    
        4.738       4.474       4.230       3.973       3.630       3.243       2.881       2.555       2.304       2.065    
        1.813       1.556       1.354       1.163      0.9818      0.8333      0.6503      0.4284      0.2126       0.000    
  33    10.00       9.945       9.900       9.847       9.774       9.677       9.504       9.279       9.074       8.831    
        8.528       8.266       8.063       7.868       7.708       7.587       7.463       7.314       7.150       6.978    
        6.795       6.617       6.435       6.287       6.188       6.087       5.879       5.589       5.292       5.002    
        4.718       4.490       4.253       3.942       3.622       3.276       2.968       2.706       2.443       2.181    
        1.946       1.703       1.481       1.280       1.079      0.9036      0.6981      0.4367      0.2056       0.000    
  34    10.00       9.950       9.919       9.873       9.782       9.647       9.479       9.312       9.100       8.836    
        8.565       8.307       8.087       7.889       7.749       7.654       7.522       7.368       7.184       7.017    
        6.843       6.632       6.454       6.320       6.215       6.063       5.811       5.559       5.267       4.952    
        4.716       4.529       4.308       4.003       3.684       3.372       3.088       2.852       2.584       2.321    
        2.097       1.874       1.638       1.434       1.221       1.014      0.7532      0.4837      0.2550       0.000    
  35    10.00       9.959       9.923       9.864       9.750       9.606       9.483       9.340       9.142       8.855    
        8.564       8.321       8.096       7.928       7.813       7.706       7.562       7.387       7.204       7.016    
        6.829       6.634       6.451       6.322       6.206       6.058       5.806       5.510       5.199       4.907    
        4.737       4.552       4.320       4.088       3.819       3.491       3.208       3.018       2.748       2.456    
        2.246       2.023       1.799       1.598       1.361       1.130      0.8675      0.5789      0.2893       0.000    
  36    10.00       9.955       9.905       9.838       9.724       9.587       9.475       9.340       9.139       8.867    
        8.561       8.294       8.126       7.997       7.887       7.749       7.573       7.396       7.192       6.938    
        6.739       6.579       6.425       6.312       6.204       6.025       5.748       5.446       5.133       4.884    
        4.727       4.569       4.359       4.143       3.914       3.617       3.337       3.131       2.894       2.581    
        2.346       2.120       1.892       1.726       1.497       1.242      0.9802      0.6789      0.3453       0.000    
  37    10.00       9.941       9.885       9.811       9.695       9.569       9.443       9.311       9.125       8.829    
        8.518       8.300       8.197       8.072       7.923       7.779       7.568       7.346       7.076       6.814    
        6.677       6.551       6.404       6.282       6.150       5.928       5.673       5.352       5.086       4.911    
        4.759       4.590       4.376       4.189       3.952       3.669       3.449       3.250       2.988       2.676    
        2.395       2.175       1.994       1.809       1.592       1.355       1.104      0.7661      0.4150       0.000    
  38    10.00       9.934       9.861       9.781       9.674       9.550       9.408       9.269       9.070       8.794    
        8.555       8.382       8.250       8.132       7.959       7.726       7.477       7.192       6.896       6.739    
        6.634       6.473       6.323       6.222       6.070       5.845       5.538       5.257       5.112       4.974    
        4.804       4.615       4.413       4.224       3.991       3.735       3.539       3.335       3.024       2.698    
        2.454       2.251       2.067       1.882       1.689       1.461       1.201      0.8765      0.4547       0.000    
  39    10.00       9.915       9.841       9.762       9.655       9.515       9.362       9.214       9.031       8.808    
        8.620       8.489       8.339       8.163       7.891       7.579       7.264       6.956       6.783       6.691    
        6.534       6.357       6.250       6.154       6.006       5.746       5.455       5.284       5.158       5.012    
        4.829       4.651       4.447       4.246       4.050       3.839       3.613       3.376       3.056       2.735    
        2.480       2.276       2.133       1.986       1.777       1.543       1.282      0.9286      0.4547       0.000    
  40    10.00       9.901       9.828       9.747       9.639       9.492       9.333       9.183       9.028       8.841    
        8.685       8.569       8.371       8.074       7.719       7.368       7.051       6.847       6.740       6.616    
        6.440       6.291       6.198       6.074       5.903       5.691       5.507       5.340       5.192       5.053    
        4.884       4.687       4.481       4.293       4.113       3.899       3.656       3.419       3.072       2.722    
        2.491       2.322       2.173       2.047       1.835       1.575       1.335      0.9647      0.4763       0.000    
  41    10.00       9.908       9.821       9.732       9.612       9.477       9.338       9.203       9.053       8.885    
        8.736       8.588       8.306       7.921       7.529       7.213       6.969       6.801       6.688       6.543    
        6.363       6.237       6.128       5.996       5.849       5.703       5.570       5.410       5.232       5.073    
        4.920       4.733       4.526       4.355       4.168       3.960       3.712       3.381       2.997       2.728    
        2.541       2.365       2.228       2.069       1.846       1.588       1.376       1.024      0.5243       0.000    
  42    10.00       9.910       9.814       9.731       9.626       9.500       9.360       9.209       9.074       8.943    
        8.757       8.483       8.127       7.729       7.377       7.137       6.927       6.770       6.635       6.461    
        6.296       6.178       6.065       5.973       5.853       5.747       5.624       5.439       5.249       5.108    
        4.975       4.773       4.551       4.391       4.231       3.997       3.679       3.284       2.943       2.738    
        2.589       2.440       2.271       2.064       1.832       1.625       1.411       1.066      0.5485       0.000    
  43    10.00       9.911       9.822       9.737       9.653       9.540       9.400       9.250       9.100       8.908    
        8.633       8.315       7.951       7.570       7.301       7.101       6.902       6.736       6.572       6.398    
        6.246       6.135       6.054       5.984       5.880       5.766       5.645       5.463       5.294       5.180    
        5.012       4.790       4.582       4.424       4.240       3.954       3.580       3.200       2.963       2.802    
        2.644       2.483       2.276       2.053       1.842       1.641       1.449       1.063      0.4788       0.000    
  44    10.00       9.905       9.824       9.750       9.657       9.570       9.450       9.265       9.060       8.788    
        8.509       8.175       7.778       7.502       7.296       7.074       6.857       6.665       6.485       6.332    
        6.224       6.138       6.064       5.992       5.901       5.785       5.642       5.500       5.370       5.226    
        5.064       4.864       4.629       4.406       4.190       3.899       3.509       3.180       2.991       2.835    
        2.684       2.506       2.299       2.100       1.878       1.656       1.405      0.9100      0.4022       0.000    
  45    10.00       9.905       9.838       9.753       9.665       9.586       9.410       9.196       8.953       8.686    
        8.451       8.050       7.683       7.477       7.265       7.021       6.775       6.578       6.421       6.313    
        6.236       6.161       6.084       5.997       5.900       5.794       5.675       5.555       5.448       5.300    
        5.106       4.892       4.654       4.385       4.140       3.824       3.458       3.199       3.044       2.887    
        2.691       2.486       2.304       2.124       1.931       1.692       1.267      0.7627      0.3863       0.000    
  46    10.00       9.921       9.850       9.759       9.661       9.513       9.326       9.148       8.926       8.664    
        8.326       7.958       7.663       7.406       7.188       6.947       6.701       6.548       6.432       6.332    
        6.262       6.192       6.100       5.996       5.901       5.807       5.710       5.603       5.496       5.359    
        5.179       4.955       4.692       4.388       4.046       3.707       3.441       3.265       3.092       2.912    
        2.686       2.472       2.291       2.147       1.939       1.605       1.136      0.7184      0.3650       0.000    
  47    10.00       9.939       9.872       9.777       9.608       9.428       9.268       9.116       8.916       8.590    
        8.225       7.883       7.599       7.383       7.150       6.883       6.672       6.536       6.443       6.361    
        6.286       6.205       6.113       6.011       5.917       5.836       5.750       5.645       5.521       5.386    
        5.226       5.027       4.687       4.284       3.964       3.714       3.483       3.332       3.173       2.923    
        2.654       2.429       2.261       2.143       1.883       1.485       1.054      0.6912      0.3548       0.000    
  48    10.00       9.946       9.875       9.733       9.562       9.413       9.242       9.088       8.874       8.530    
        8.133       7.823       7.593       7.335       7.065       6.826       6.666       6.534       6.445       6.384    
        6.309       6.211       6.110       6.022       5.946       5.878       5.796       5.679       5.533       5.375    
        5.210       4.982       4.630       4.299       4.020       3.772       3.556       3.385       3.180       2.880    
        2.596       2.415       2.275       2.055       1.707       1.351       1.006      0.6961      0.3745       0.000    
  49    10.00       9.943       9.842       9.714       9.574       9.401       9.229       9.056       8.791       8.427    
        8.084       7.795       7.517       7.273       7.065       6.840       6.635       6.515       6.456       6.397    
        6.326       6.216       6.104       6.031       5.969       5.915       5.823       5.681       5.515       5.364    
        5.191       4.913       4.615       4.394       4.138       3.847       3.585       3.378       3.142       2.823    
        2.593       2.435       2.226       1.894       1.585       1.294      0.9949      0.6960      0.3732       0.000    
  50    10.00       9.935       9.830       9.700       9.573       9.411       9.218       9.003       8.724       8.436    
        8.078       7.715       7.458       7.263       7.087       6.834       6.606       6.517       6.464       6.405    
        6.334       6.220       6.106       6.035       5.982       5.932       5.828       5.665       5.498       5.354    
        5.177       4.890       4.660       4.461       4.192       3.904       3.629       3.347       3.024       2.757    
        2.638       2.459       2.136       1.803       1.573       1.292       1.009      0.6816      0.3039       0.000    

 HEAD WILL BE SAVED ON UNIT   51 AT END OF TIME STEP  21, STRESS PERIOD    2

 DRAWDOWN WILL BE SAVED ON UNIT   52 AT END OF TIME STEP  21, STRESS PERIOD    2
1
  VOLUMETRIC BUDGET FOR ENTIRE MODEL AT END OF TIME STEP 21 IN STRESS PERIOD   2
  ------------------------------------------------------------------------------

     CUMULATIVE VOLUMES      L**3       RATES FOR THIS TIME STEP      L**3/T
     ------------------                 ------------------------

           IN:                                      IN:
           ---                                      ---
             STORAGE =       10491.3486               STORAGE =         497.9890
       CONSTANT HEAD =       13144.3223         CONSTANT HEAD =         599.0173
               WELLS =           0.0000                 WELLS =           0.0000

            TOTAL IN =       23635.6719              TOTAL IN =        1097.0063

          OUT:                                     OUT:
          ----                                     ----
             STORAGE =       9.4320E-03               STORAGE =           0.0000
       CONSTANT HEAD =       13135.6611         CONSTANT HEAD =         597.0065
               WELLS =       10500.0000                 WELLS =         500.0000

           TOTAL OUT =       23635.6699             TOTAL OUT =        1097.0065

            IN - OUT =       1.9531E-03              IN - OUT =      -1.2207E-04

 PERCENT DISCREPANCY =           0.00     PERCENT DISCREPANCY =           0.00






          TIME SUMMARY AT END OF TIME STEP  21 IN STRESS PERIOD    2
                    SECONDS     MINUTES      HOURS       DAYS        YEARS
                    -----------------------------------------------------------
   TIME STEP LENGTH  86400.      1440.0      24.000      1.0000     2.73785E-03
 STRESS PERIOD TIME 1.81440E+06  30240.      504.00      21.000     5.74949E-02
         TOTAL TIME 1.90080E+06  31680.      528.00      22.000     6.02327E-02
1
 
 SOLVING FOR HEAD 

 OUTPUT CONTROL FOR STRESS PERIOD    2   TIME STEP  22
    SAVE HEAD FOR ALL LAYERS
    SAVE DRAWDOWN FOR ALL LAYERS
    SAVE BUDGET
    PRINT HEAD FOR ALL LAYERS
    PRINT BUDGET
 UBDSV1 SAVING "         STORAGE" ON UNIT  53 AT TIME STEP 22, STRESS PERIOD   2
 UBDSV2 SAVING "   CONSTANT HEAD" ON UNIT  53 AT TIME STEP 22, STRESS PERIOD   2
 UBDSV1 SAVING "FLOW RIGHT FACE " ON UNIT  53 AT TIME STEP 22, STRESS PERIOD   2
 UBDSV1 SAVING "FLOW FRONT FACE " ON UNIT  53 AT TIME STEP 22, STRESS PERIOD   2
1
              HEAD IN LAYER   1 AT END OF TIME STEP  22 IN STRESS PERIOD    2
  ---------------------------------------------------------------------------

            1           2           3           4           5           6           7           8           9          10
           11          12          13          14          15          16          17          18          19          20
           21          22          23          24          25          26          27          28          29          30
           31          32          33          34          35          36          37          38          39          40
           41          42          43          44          45          46          47          48          49          50
 ........................................................................................................................
   1    10.00       9.959       9.902       9.835       9.771       9.698       9.629       9.561       9.476       9.392    
        9.326       9.263       9.197       9.133       9.029       8.905       8.766       8.656       8.600       8.533    
        8.454       8.389       8.326       8.252       8.152       7.956       7.733       7.577       7.424       7.280    
        7.092       6.791       6.406       5.980       5.538       5.068       4.604       4.217       3.713       3.164    
        2.714       2.284       1.807       1.408       1.161      0.9522      0.7866      0.6668      0.4475       0.000    
   2    10.00       9.958       9.906       9.840       9.775       9.710       9.642       9.552       9.458       9.389    
        9.333       9.278       9.223       9.144       9.026       8.895       8.765       8.656       8.598       8.524    
        8.444       8.396       8.344       8.267       8.141       7.950       7.748       7.587       7.432       7.291    
        7.081       6.766       6.363       5.878       5.407       4.952       4.550       4.177       3.663       3.133    
        2.682       2.198       1.763       1.449       1.217       1.037      0.8315      0.6490      0.3620       0.000    
   3    10.00       9.953       9.901       9.842       9.785       9.719       9.631       9.537       9.471       9.409    
        9.346       9.296       9.248       9.171       9.050       8.889       8.747       8.659       8.591       8.515    
        8.450       8.400       8.347       8.245       8.109       7.938       7.764       7.637       7.457       7.273    
        7.009       6.636       6.178       5.709       5.290       4.865       4.471       4.070       3.539       3.047    
        2.660       2.213       1.813       1.525       1.295       1.109      0.8653      0.5801      0.2630       0.000    
   4    10.00       9.953       9.902       9.844       9.780       9.704       9.614       9.542       9.484       9.421    
        9.365       9.324       9.270       9.183       9.066       8.895       8.747       8.665       8.588       8.521    
        8.451       8.389       8.323       8.216       8.082       7.930       7.771       7.616       7.457       7.248    
        6.919       6.429       5.944       5.587       5.236       4.796       4.322       3.853       3.428       3.055    
        2.692       2.276       1.899       1.639       1.379       1.142      0.8408      0.5219      0.2500       0.000    
   5    10.00       9.950       9.898       9.834       9.768       9.698       9.617       9.554       9.495       9.436    
        9.388       9.347       9.276       9.176       9.046       8.891       8.765       8.676       8.600       8.510    
        8.427       8.361       8.280       8.175       8.056       7.901       7.744       7.601       7.440       7.189    
        6.719       6.175       5.786       5.506       5.157       4.680       4.190       3.763       3.443       3.105    
        2.747       2.363       1.988       1.746       1.467       1.124      0.7655      0.4655      0.2341       0.000    
   6    10.00       9.943       9.882       9.828       9.768       9.692       9.623       9.570       9.508       9.451    
        9.406       9.357       9.268       9.155       9.042       8.912       8.786       8.682       8.583       8.480    
        8.397       8.320       8.250       8.155       8.003       7.852       7.724       7.579       7.357       6.980    
        6.467       5.975       5.651       5.406       5.091       4.619       4.129       3.765       3.494       3.187    
        2.857       2.518       2.133       1.807       1.438       1.061      0.6763      0.4018      0.2212       0.000    
   7    10.00       9.932       9.872       9.822       9.761       9.697       9.636       9.585       9.528       9.473    
        9.417       9.343       9.246       9.140       9.033       8.931       8.799       8.660       8.547       8.445    
        8.359       8.284       8.223       8.107       7.952       7.823       7.694       7.503       7.155       6.676    
        6.184       5.784       5.561       5.341       4.975       4.533       4.201       3.845       3.546       3.344    
        3.029       2.664       2.212       1.747       1.334      0.9216      0.5829      0.4049      0.2084       0.000    
   8    10.00       9.931       9.877       9.821       9.759       9.703       9.649       9.598       9.545       9.493    
        9.420       9.325       9.230       9.129       9.031       8.917       8.754       8.608       8.516       8.419    
        8.322       8.257       8.169       8.047       7.912       7.777       7.565       7.271       6.839       6.419    
        6.045       5.729       5.521       5.269       4.879       4.512       4.212       3.948       3.712       3.477    
        3.169       2.710       2.154       1.659       1.228      0.8632      0.6174      0.3968      0.1902       0.000    
   9    10.00       9.942       9.877       9.815       9.769       9.722       9.669       9.615       9.556       9.500    
        9.416       9.310       9.206       9.107       9.002       8.869       8.712       8.578       8.478       8.379    
        8.293       8.210       8.093       7.977       7.855       7.693       7.393       6.999       6.595       6.287    
        5.977       5.708       5.478       5.161       4.798       4.487       4.257       4.059       3.847       3.589    
        3.219       2.717       2.151       1.657       1.238      0.8827      0.6232      0.4004      0.2047       0.000    
  10    10.00       9.940       9.871       9.821       9.778       9.733       9.685       9.639       9.571       9.489    
        9.388       9.277       9.179       9.086       8.979       8.817       8.652       8.536       8.443       8.350    
        8.269       8.158       8.028       7.899       7.759       7.532       7.155       6.745       6.395       6.146    
        5.942       5.708       5.433       5.110       4.765       4.498       4.317       4.143       3.914       3.618    
        3.195       2.675       2.156       1.735       1.341      0.9720      0.6429      0.4253      0.2285       0.000    
  11    10.00       9.927       9.871       9.830       9.788       9.749       9.705       9.641       9.550       9.459    
        9.358       9.250       9.160       9.049       8.905       8.752       8.616       8.513       8.428       8.333    
        8.216       8.076       7.905       7.758       7.533       7.221       6.897       6.587       6.285       6.093    
        5.933       5.644       5.338       5.069       4.799       4.586       4.395       4.173       3.891       3.533    
        3.136       2.733       2.234       1.818       1.442       1.076      0.7225      0.4178      0.1751       0.000    
  12    10.00       9.929       9.878       9.834       9.799       9.759       9.708       9.619       9.515       9.427    
        9.335       9.223       9.113       8.984       8.859       8.718       8.587       8.497       8.405       8.279    
        8.092       7.887       7.688       7.487       7.190       6.951       6.755       6.455       6.198       6.040    
        5.856       5.595       5.333       5.079       4.877       4.673       4.429       4.160       3.817       3.457    
        3.120       2.754       2.272       1.862       1.509       1.124      0.7605      0.3942      0.1308       0.000    
  13    10.00       9.943       9.894       9.848       9.806       9.759       9.680       9.578       9.480       9.391    
        9.288       9.181       9.069       8.935       8.798       8.666       8.571       8.463       8.344       8.107    
        7.831       7.615       7.394       7.129       6.897       6.773       6.556       6.291       6.140       5.992    
        5.771       5.535       5.326       5.126       4.948       4.759       4.467       4.101       3.769       3.428    
        3.105       2.727       2.210       1.829       1.524       1.116      0.6996      0.3407      0.1043       0.000    
  14    10.00       9.956       9.914       9.865       9.808       9.731       9.629       9.528       9.440       9.344    
        9.239       9.138       9.013       8.875       8.755       8.641       8.504       8.369       8.144       7.796    
        7.529       7.318       7.027       6.814       6.697       6.581       6.368       6.196       6.056       5.905    
        5.708       5.524       5.368       5.185       4.991       4.798       4.471       4.071       3.728       3.377    
        3.045       2.575       2.083       1.783       1.437       1.070      0.7015      0.3159      8.9942E-02   0.000    
  15    10.00       9.965       9.922       9.868       9.799       9.688       9.565       9.476       9.395       9.301    
        9.219       9.117       8.959       8.805       8.696       8.528       8.357       8.214       7.878       7.496    
        7.251       6.971       6.719       6.630       6.559       6.421       6.238       6.076       5.962       5.840    
        5.680       5.540       5.404       5.241       5.046       4.811       4.432       3.991       3.629       3.308    
        2.952       2.478       2.089       1.714       1.303      0.9798      0.6275      0.2899      9.8073E-02   0.000    
  16    10.00       9.971       9.925       9.858       9.759       9.627       9.518       9.448       9.376       9.282    
        9.185       9.039       8.848       8.700       8.548       8.357       8.241       7.965       7.491       7.151    
        6.928       6.681       6.581       6.523       6.407       6.232       6.087       5.997       5.926       5.816    
        5.677       5.547       5.433       5.271       5.036       4.726       4.297       3.916       3.627       3.285    
        2.872       2.405       1.987       1.580       1.227      0.8686      0.5635      0.2931      0.1046       0.000    
  17    10.00       9.967       9.912       9.824       9.711       9.576       9.479       9.419       9.336       9.238    
        9.069       8.870       8.711       8.562       8.370       8.180       7.946       7.506       7.100       6.879    
        6.698       6.556       6.484       6.365       6.190       6.063       6.013       5.971       5.900       5.784    
        5.661       5.544       5.423       5.267       4.944       4.540       4.208       3.955       3.672       3.260    
        2.736       2.280       1.892       1.510       1.101      0.7251      0.4807      0.2664      0.1109       0.000    
  18    10.00       9.954       9.883       9.781       9.634       9.521       9.454       9.366       9.266       9.123    
        8.913       8.748       8.600       8.379       8.130       7.870       7.539       7.147       6.890       6.715    
        6.574       6.449       6.336       6.178       6.052       6.006       5.981       5.945       5.865       5.754    
        5.645       5.526       5.374       5.136       4.808       4.478       4.212       4.003       3.650       3.146    
        2.641       2.163       1.774       1.415       1.023      0.6694      0.4066      0.2227      0.1039       0.000    
  19    10.00       9.938       9.857       9.709       9.564       9.499       9.415       9.302       9.183       9.021    
        8.836       8.675       8.443       8.129       7.867       7.608       7.248       6.919       6.751       6.636    
        6.486       6.330       6.203       6.068       5.996       5.969       5.940       5.888       5.805       5.711    
        5.608       5.479       5.280       5.032       4.757       4.474       4.242       3.976       3.479       2.984    
        2.585       2.097       1.675       1.326      0.9400      0.6035      0.3660      0.2115      0.1058       0.000    
  20    10.00       9.920       9.797       9.644       9.538       9.463       9.372       9.251       9.111       8.962    
        8.771       8.533       8.219       7.929       7.695       7.381       7.047       6.875       6.732       6.575    
        6.414       6.252       6.097       5.994       5.945       5.904       5.850       5.799       5.723       5.641    
        5.544       5.416       5.216       4.988       4.736       4.490       4.242       3.831       3.310       2.889    
        2.449       1.977       1.603       1.253      0.8941      0.5423      0.3178      0.2133      0.1077       0.000    
  21    10.00       9.874       9.747       9.623       9.513       9.430       9.330       9.178       9.036       8.893    
        8.646       8.347       8.051       7.811       7.557       7.254       7.012       6.861       6.698       6.527    
        6.331       6.148       6.011       5.907       5.829       5.762       5.719       5.675       5.600       5.538    
        5.462       5.332       5.156       4.952       4.723       4.484       4.135       3.718       3.263       2.762    
        2.319       1.877       1.553       1.233      0.7765      0.4575      0.3255      0.2374      0.1141       0.000    
  22    10.00       9.856       9.707       9.587       9.494       9.395       9.250       9.100       8.975       8.786    
        8.527       8.214       7.956       7.755       7.477       7.195       6.990       6.834       6.672       6.466    
        6.242       6.056       5.881       5.724       5.622       5.574       5.543       5.490       5.459       5.420    
        5.357       5.248       5.110       4.917       4.697       4.463       4.096       3.672       3.137       2.643    
        2.260       1.859       1.500       1.026      0.6378      0.4581      0.3441      0.2287      9.0754E-02   0.000    
  23    10.00       9.824       9.680       9.581       9.480       9.333       9.171       9.054       8.896       8.700    
        8.435       8.155       7.956       7.702       7.400       7.154       6.980       6.838       6.655       6.409    
        6.169       5.952       5.721       5.446       5.201       5.158       5.232       5.267       5.304       5.305    
        5.266       5.179       5.052       4.893       4.679       4.428       4.082       3.552       2.988       2.581    
        2.214       1.758       1.245      0.8350      0.6210      0.4694      0.3430      0.2174      0.1012       0.000    
  24    10.00       9.801       9.697       9.583       9.441       9.281       9.153       9.026       8.871       8.644    
        8.399       8.181       7.961       7.655       7.335       7.139       6.996       6.849       6.630       6.381    
        6.144       5.895       5.544       4.912       3.958       4.293       4.737       5.010       5.146       5.190    
        5.179       5.111       5.009       4.844       4.637       4.383       3.952       3.391       2.910       2.478    
        2.033       1.553       1.100      0.7947      0.6167      0.4659      0.3346      0.2534      0.1394       0.000    
  25    10.00       9.827       9.718       9.580       9.431       9.288       9.157       9.036       8.845       8.619    
        8.413       8.202       7.933       7.595       7.347       7.170       7.012       6.839       6.635       6.405    
        6.151       5.904       5.266       3.915      0.8288       3.354       4.309       4.780       5.016       5.108    
        5.112       5.064       4.957       4.764       4.544       4.238       3.795       3.257       2.820       2.354    
        1.841       1.390       1.021      0.7847      0.6405      0.5003      0.3654      0.2692      0.1757       0.000    
  26    10.00       9.852       9.749       9.602       9.448       9.322       9.186       9.032       8.837       8.660    
        8.482       8.201       7.860       7.572       7.391       7.233       7.046       6.822       6.606       6.410    
        6.215       5.947       5.364       4.393       3.365       3.888       4.445       4.785       4.983       5.073    
        5.067       5.016       4.887       4.696       4.483       4.152       3.573       3.081       2.716       2.149    
        1.596       1.224       1.008      0.8504      0.6973      0.5421      0.4017      0.2941      0.1756       0.000    
  27    10.00       9.885       9.760       9.635       9.497       9.351       9.215       9.066       8.890       8.720    
        8.480       8.147       7.851       7.617       7.460       7.282       7.037       6.791       6.616       6.461    
        6.300       6.027       5.596       5.068       4.510       4.542       4.740       4.916       5.034       5.069    
        5.041       4.979       4.854       4.660       4.376       3.864       3.324       2.943       2.390       1.840    
        1.447       1.206       1.050      0.9161      0.7750      0.5961      0.4289      0.3210      0.2157       0.000    
  28    10.00       9.896       9.790       9.670       9.545       9.407       9.266       9.115       8.948       8.750    
        8.453       8.150       7.893       7.669       7.507       7.326       7.117       6.880       6.652       6.501    
        6.359       6.166       5.883       5.499       5.155       5.003       5.017       5.092       5.107       5.090    
        5.030       4.947       4.799       4.535       4.121       3.596       3.148       2.636       2.096       1.736    
        1.453       1.255       1.100      0.9673      0.8223      0.6510      0.4857      0.3648      0.2224       0.000    
  29    10.00       9.901       9.801       9.711       9.590       9.463       9.327       9.174       8.997       8.730    
        8.437       8.170       7.925       7.741       7.553       7.358       7.168       6.979       6.764       6.573    
        6.423       6.262       6.071       5.840       5.532       5.363       5.296       5.260       5.218       5.122    
        5.011       4.859       4.676       4.320       3.843       3.385       2.932       2.424       2.018       1.760    
        1.530       1.312       1.143       1.014      0.8722      0.6967      0.5264      0.3852      0.2245       0.000    
  30    10.00       9.910       9.826       9.747       9.642       9.525       9.403       9.232       9.009       8.736    
        8.433       8.160       7.955       7.771       7.584       7.397       7.238       7.080       6.889       6.687    
        6.511       6.365       6.201       6.035       5.834       5.646       5.561       5.434       5.321       5.150    
        4.946       4.702       4.454       4.088       3.716       3.294       2.833       2.374       2.080       1.844    
        1.584       1.371       1.208       1.053      0.8944      0.7390      0.5606      0.4012      0.2424       0.000    
  31    10.00       9.925       9.853       9.778       9.702       9.609       9.474       9.271       9.011       8.726    
        8.433       8.178       7.983       7.794       7.627       7.454       7.292       7.171       6.986       6.794    
        6.627       6.475       6.330       6.169       6.025       5.876       5.731       5.578       5.377       5.132    
        4.829       4.537       4.290       4.016       3.653       3.221       2.787       2.414       2.179       1.967    
        1.697       1.451       1.261       1.098      0.9395      0.7750      0.5963      0.4283      0.2357       0.000    
  32    10.00       9.936       9.881       9.816       9.741       9.656       9.521       9.289       9.043       8.783    
        8.472       8.207       8.011       7.833       7.663       7.515       7.374       7.223       7.072       6.892    
        6.713       6.549       6.397       6.237       6.111       6.009       5.848       5.638       5.352       5.031    
        4.728       4.467       4.224       3.969       3.627       3.241       2.879       2.555       2.304       2.064    
        1.812       1.556       1.353       1.163      0.9817      0.8332      0.6502      0.4284      0.2126       0.000    
  33    10.00       9.945       9.899       9.847       9.774       9.676       9.503       9.277       9.071       8.828    
        8.523       8.259       8.055       7.859       7.698       7.575       7.450       7.299       7.134       6.961    
        6.776       6.598       6.416       6.267       6.168       6.066       5.861       5.574       5.280       4.992    
        4.711       4.484       4.248       3.938       3.619       3.275       2.967       2.705       2.442       2.180    
        1.945       1.702       1.481       1.280       1.079      0.9035      0.6981      0.4367      0.2056       0.000    
  34    10.00       9.950       9.919       9.873       9.782       9.646       9.478       9.311       9.098       8.833    
        8.561       8.302       8.080       7.881       7.740       7.644       7.511       7.356       7.170       7.003    
        6.828       6.616       6.437       6.302       6.197       6.047       5.798       5.548       5.258       4.945    
        4.711       4.525       4.304       4.001       3.682       3.370       3.087       2.852       2.584       2.320    
        2.097       1.873       1.638       1.434       1.221       1.014      0.7531      0.4837      0.2550       0.000    
  35    10.00       9.959       9.923       9.864       9.750       9.605       9.482       9.339       9.141       8.852    
        8.561       8.316       8.090       7.921       7.805       7.697       7.553       7.377       7.193       7.004    
        6.816       6.621       6.438       6.309       6.193       6.046       5.795       5.501       5.193       4.903    
        4.733       4.549       4.318       4.086       3.817       3.490       3.207       3.018       2.748       2.456    
        2.246       2.023       1.799       1.598       1.361       1.130      0.8675      0.5789      0.2893       0.000    
  36    10.00       9.955       9.905       9.838       9.724       9.586       9.475       9.339       9.138       8.865    
        8.558       8.291       8.121       7.992       7.880       7.742       7.565       7.387       7.182       6.928    
        6.729       6.569       6.415       6.302       6.193       6.016       5.740       5.440       5.129       4.881    
        4.724       4.567       4.357       4.142       3.913       3.616       3.337       3.130       2.894       2.581    
        2.346       2.120       1.892       1.726       1.497       1.242      0.9802      0.6789      0.3453       0.000    
  37    10.00       9.941       9.885       9.811       9.695       9.569       9.443       9.310       9.124       8.828    
        8.515       8.296       8.193       8.067       7.918       7.773       7.562       7.339       7.069       6.807    
        6.670       6.544       6.396       6.274       6.143       5.922       5.668       5.349       5.084       4.909    
        4.757       4.588       4.375       4.188       3.951       3.669       3.449       3.250       2.988       2.676    
        2.395       2.175       1.994       1.809       1.592       1.355       1.104      0.7661      0.4150       0.000    
  38    10.00       9.934       9.861       9.781       9.674       9.549       9.408       9.269       9.069       8.793    
        8.553       8.379       8.247       8.128       7.954       7.721       7.472       7.187       6.892       6.734    
        6.629       6.468       6.318       6.217       6.065       5.841       5.535       5.255       5.110       4.972    
        4.803       4.614       4.412       4.223       3.991       3.734       3.539       3.335       3.024       2.698    
        2.454       2.251       2.067       1.882       1.689       1.461       1.201      0.8765      0.4547       0.000    
  39    10.00       9.915       9.841       9.762       9.655       9.515       9.361       9.214       9.030       8.807    
        8.618       8.487       8.336       8.160       7.888       7.576       7.261       6.953       6.780       6.687    
        6.530       6.354       6.247       6.151       6.003       5.744       5.453       5.283       5.157       5.011    
        4.828       4.650       4.447       4.245       4.050       3.838       3.613       3.376       3.056       2.735    
        2.480       2.276       2.133       1.986       1.777       1.543       1.282      0.9286      0.4547       0.000    
  40    10.00       9.901       9.828       9.747       9.639       9.491       9.333       9.183       9.027       8.840    
        8.684       8.568       8.369       8.072       7.717       7.366       7.049       6.846       6.738       6.614    
        6.438       6.288       6.196       6.072       5.901       5.690       5.506       5.339       5.191       5.053    
        4.884       4.686       4.480       4.292       4.113       3.899       3.656       3.419       3.072       2.722    
        2.491       2.322       2.173       2.047       1.835       1.575       1.335      0.9647      0.4763       0.000    
  41    10.00       9.908       9.821       9.732       9.611       9.477       9.338       9.203       9.052       8.884    
        8.735       8.587       8.305       7.920       7.528       7.212       6.968       6.800       6.686       6.541    
        6.361       6.236       6.126       5.994       5.848       5.702       5.569       5.409       5.231       5.072    
        4.920       4.733       4.526       4.355       4.168       3.959       3.712       3.381       2.997       2.728    
        2.541       2.365       2.228       2.069       1.846       1.588       1.376       1.024      0.5243       0.000    
  42    10.00       9.910       9.814       9.731       9.625       9.500       9.360       9.209       9.073       8.942    
        8.757       8.482       8.126       7.728       7.377       7.136       6.927       6.770       6.634       6.460    
        6.295       6.177       6.064       5.972       5.852       5.747       5.623       5.439       5.248       5.107    
        4.975       4.772       4.551       4.391       4.231       3.997       3.678       3.284       2.943       2.738    
        2.589       2.440       2.271       2.064       1.832       1.625       1.411       1.066      0.5485       0.000    
  43    10.00       9.911       9.822       9.737       9.653       9.540       9.400       9.250       9.100       8.908    
        8.633       8.315       7.951       7.569       7.300       7.100       6.902       6.735       6.571       6.397    
        6.245       6.135       6.054       5.984       5.879       5.765       5.644       5.463       5.294       5.180    
        5.012       4.789       4.582       4.424       4.240       3.954       3.580       3.200       2.963       2.802    
        2.644       2.483       2.276       2.053       1.842       1.641       1.449       1.063      0.4788       0.000    
  44    10.00       9.905       9.824       9.750       9.657       9.570       9.450       9.264       9.059       8.788    
        8.509       8.175       7.778       7.502       7.296       7.073       6.856       6.664       6.485       6.331    
        6.224       6.137       6.063       5.991       5.900       5.785       5.642       5.500       5.370       5.225    
        5.064       4.863       4.629       4.406       4.190       3.899       3.509       3.180       2.991       2.835    
        2.684       2.506       2.299       2.100       1.878       1.656       1.405      0.9100      0.4022       0.000    
  45    10.00       9.905       9.838       9.753       9.664       9.586       9.409       9.196       8.953       8.686    
        8.451       8.050       7.682       7.477       7.264       7.021       6.774       6.578       6.421       6.312    
        6.236       6.161       6.083       5.997       5.900       5.793       5.674       5.554       5.447       5.299    
        5.106       4.892       4.654       4.385       4.140       3.824       3.458       3.199       3.044       2.887    
        2.691       2.486       2.304       2.124       1.931       1.692       1.267      0.7627      0.3863       0.000    
  46    10.00       9.921       9.850       9.759       9.661       9.513       9.326       9.148       8.925       8.664    
        8.326       7.957       7.663       7.406       7.188       6.947       6.701       6.548       6.431       6.332    
        6.262       6.192       6.100       5.996       5.901       5.806       5.709       5.603       5.496       5.359    
        5.179       4.955       4.692       4.388       4.046       3.707       3.441       3.265       3.092       2.912    
        2.686       2.472       2.291       2.147       1.939       1.605       1.136      0.7184      0.3650       0.000    
  47    10.00       9.939       9.872       9.777       9.608       9.428       9.268       9.116       8.916       8.589    
        8.225       7.883       7.599       7.383       7.150       6.883       6.671       6.535       6.443       6.361    
        6.286       6.204       6.113       6.011       5.917       5.836       5.750       5.644       5.521       5.386    
        5.226       5.027       4.686       4.284       3.964       3.714       3.483       3.332       3.173       2.923    
        2.654       2.429       2.261       2.143       1.883       1.485       1.054      0.6912      0.3548       0.000    
  48    10.00       9.946       9.875       9.733       9.562       9.413       9.241       9.088       8.874       8.530    
        8.133       7.823       7.593       7.335       7.064       6.825       6.666       6.534       6.445       6.384    
        6.308       6.211       6.110       6.021       5.946       5.878       5.796       5.679       5.533       5.375    
        5.210       4.982       4.629       4.299       4.020       3.772       3.556       3.385       3.180       2.880    
        2.596       2.415       2.275       2.055       1.707       1.351       1.006      0.6961      0.3745       0.000    
  49    10.00       9.943       9.842       9.714       9.574       9.401       9.229       9.056       8.791       8.427    
        8.084       7.795       7.517       7.273       7.065       6.840       6.634       6.514       6.456       6.397    
        6.326       6.215       6.104       6.031       5.968       5.914       5.823       5.681       5.515       5.364    
        5.191       4.913       4.615       4.394       4.137       3.847       3.585       3.378       3.142       2.823    
        2.593       2.435       2.226       1.894       1.585       1.294      0.9949      0.6960      0.3732       0.000    
  50    10.00       9.935       9.830       9.699       9.573       9.411       9.218       9.002       8.724       8.436    
        8.078       7.715       7.458       7.263       7.087       6.833       6.606       6.516       6.464       6.405    
        6.334       6.220       6.106       6.035       5.982       5.932       5.828       5.665       5.497       5.354    
        5.176       4.890       4.659       4.461       4.192       3.904       3.629       3.347       3.024       2.757    
        2.638       2.459       2.136       1.803       1.573       1.292       1.009      0.6816      0.3039       0.000    

 HEAD WILL BE SAVED ON UNIT   51 AT END OF TIME STEP  22, STRESS PERIOD    2

 DRAWDOWN WILL BE SAVED ON UNIT   52 AT END OF TIME STEP  22, STRESS PERIOD    2
1
  VOLUMETRIC BUDGET FOR ENTIRE MODEL AT END OF TIME STEP 22 IN STRESS PERIOD   2
  ------------------------------------------------------------------------------

     CUMULATIVE VOLUMES      L**3       RATES FOR THIS TIME STEP      L**3/T
     ------------------                 ------------------------

           IN:                                      IN:
           ---                                      ---
             STORAGE =       10988.9053               STORAGE =         497.5564
       CONSTANT HEAD =       13743.7471         CONSTANT HEAD =         599.4244
               WELLS =           0.0000                 WELLS =           0.0000

            TOTAL IN =       24732.6523              TOTAL IN =        1096.9807

          OUT:                                     OUT:
          ----                                     ----
             STORAGE =       9.4320E-03               STORAGE =           0.0000
       CONSTANT HEAD =       13732.6426         CONSTANT HEAD =         596.9813
               WELLS =       11000.0000                 WELLS =         500.0000

           TOTAL OUT =       24732.6523             TOTAL OUT =        1096.9813

            IN - OUT =           0.0000              IN - OUT =      -6.1035E-04

 PERCENT DISCREPANCY =           0.00     PERCENT DISCREPANCY =           0.00






          TIME SUMMARY AT END OF TIME STEP  22 IN STRESS PERIOD    2
                    SECONDS     MINUTES      HOURS       DAYS        YEARS
                    -----------------------------------------------------------
   TIME STEP LENGTH  86400.      1440.0      24.000      1.0000     2.73785E-03
 STRESS PERIOD TIME 1.90080E+06  31680.      528.00      22.000     6.02327E-02
         TOTAL TIME 1.98720E+06  33120.      552.00      23.000     6.29706E-02
1
 
 SOLVING FOR HEAD 

 OUTPUT CONTROL FOR STRESS PERIOD    2   TIME STEP  23
    SAVE HEAD FOR ALL LAYERS
    SAVE DRAWDOWN FOR ALL LAYERS
    SAVE BUDGET
    PRINT HEAD FOR ALL LAYERS
    PRINT BUDGET
 UBDSV1 SAVING "         STORAGE" ON UNIT  53 AT TIME STEP 23, STRESS PERIOD   2
 UBDSV2 SAVING "   CONSTANT HEAD" ON UNIT  53 AT TIME STEP 23, STRESS PERIOD   2
 UBDSV1 SAVING "FLOW RIGHT FACE " ON UNIT  53 AT TIME STEP 23, STRESS PERIOD   2
 UBDSV1 SAVING "FLOW FRONT FACE " ON UNIT  53 AT TIME STEP 23, STRESS PERIOD   2
1
              HEAD IN LAYER   1 AT END OF TIME STEP  23 IN STRESS PERIOD    2
  ---------------------------------------------------------------------------

            1           2           3           4           5           6           7           8           9          10
           11          12          13          14          15          16          17          18          19          20
           21          22          23          24          25          26          27          28          29          30
           31          32          33          34          35          36          37          38          39          40
           41          42          43          44          45          46          47          48          49          50
 ........................................................................................................................
   1    10.00       9.959       9.901       9.835       9.771       9.698       9.629       9.561       9.475       9.391    
        9.326       9.262       9.196       9.132       9.029       8.904       8.765       8.655       8.598       8.532    
        8.452       8.388       8.324       8.250       8.151       7.954       7.732       7.576       7.423       7.279    
        7.091       6.790       6.406       5.979       5.538       5.068       4.604       4.217       3.712       3.164    
        2.714       2.284       1.807       1.407       1.161      0.9521      0.7866      0.6668      0.4475       0.000    
   2    10.00       9.958       9.906       9.840       9.774       9.710       9.641       9.552       9.458       9.389    
        9.332       9.278       9.223       9.143       9.025       8.894       8.764       8.655       8.597       8.522    
        8.443       8.394       8.343       8.266       8.140       7.948       7.747       7.586       7.431       7.290    
        7.080       6.766       6.363       5.878       5.406       4.952       4.550       4.176       3.663       3.133    
        2.682       2.198       1.762       1.449       1.216       1.037      0.8315      0.6490      0.3620       0.000    
   3    10.00       9.953       9.901       9.842       9.784       9.719       9.631       9.537       9.470       9.408    
        9.345       9.295       9.247       9.170       9.049       8.888       8.746       8.658       8.589       8.514    
        8.449       8.399       8.346       8.243       8.107       7.937       7.762       7.636       7.456       7.271    
        7.008       6.636       6.178       5.708       5.289       4.865       4.470       4.070       3.538       3.047    
        2.659       2.212       1.813       1.525       1.295       1.108      0.8652      0.5800      0.2630       0.000    
   4    10.00       9.953       9.902       9.844       9.780       9.704       9.614       9.541       9.484       9.420    
        9.365       9.323       9.269       9.183       9.065       8.894       8.746       8.663       8.587       8.519    
        8.450       8.387       8.321       8.214       8.080       7.928       7.770       7.615       7.456       7.247    
        6.917       6.428       5.943       5.586       5.235       4.795       4.321       3.852       3.427       3.055    
        2.691       2.276       1.899       1.639       1.379       1.142      0.8408      0.5218      0.2500       0.000    
   5    10.00       9.950       9.898       9.833       9.768       9.698       9.617       9.554       9.495       9.435    
        9.387       9.346       9.276       9.175       9.045       8.890       8.764       8.674       8.598       8.508    
        8.426       8.359       8.278       8.173       8.054       7.899       7.742       7.599       7.438       7.187    
        6.718       6.173       5.785       5.504       5.156       4.679       4.189       3.762       3.442       3.104    
        2.746       2.363       1.988       1.745       1.466       1.124      0.7655      0.4655      0.2341       0.000    
   6    10.00       9.943       9.881       9.828       9.768       9.692       9.623       9.570       9.507       9.451    
        9.405       9.356       9.267       9.154       9.041       8.911       8.784       8.681       8.581       8.478    
        8.395       8.318       8.247       8.153       8.001       7.849       7.722       7.577       7.355       6.978    
        6.465       5.973       5.649       5.404       5.089       4.617       4.127       3.764       3.493       3.186    
        2.856       2.517       2.133       1.807       1.438       1.061      0.6763      0.4018      0.2212       0.000    
   7    10.00       9.932       9.872       9.822       9.760       9.697       9.636       9.585       9.527       9.472    
        9.417       9.342       9.245       9.139       9.032       8.930       8.798       8.658       8.545       8.443    
        8.356       8.282       8.220       8.104       7.949       7.820       7.692       7.500       7.152       6.673    
        6.181       5.781       5.558       5.338       4.972       4.531       4.199       3.844       3.545       3.343    
        3.028       2.664       2.212       1.747       1.333      0.9215      0.5829      0.4049      0.2084       0.000    
   8    10.00       9.931       9.877       9.821       9.759       9.702       9.649       9.598       9.545       9.492    
        9.419       9.324       9.229       9.128       9.030       8.916       8.752       8.606       8.514       8.416    
        8.319       8.254       8.166       8.043       7.909       7.774       7.562       7.267       6.835       6.415    
        6.041       5.725       5.518       5.266       4.876       4.509       4.209       3.946       3.711       3.476    
        3.168       2.709       2.154       1.658       1.228      0.8632      0.6173      0.3968      0.1902       0.000    
   9    10.00       9.942       9.877       9.815       9.769       9.722       9.669       9.614       9.556       9.500    
        9.416       9.309       9.205       9.105       9.001       8.867       8.710       8.575       8.475       8.376    
        8.290       8.207       8.089       7.973       7.851       7.688       7.388       6.993       6.589       6.281    
        5.971       5.703       5.474       5.158       4.795       4.484       4.255       4.056       3.845       3.587    
        3.218       2.716       2.150       1.657       1.238      0.8827      0.6231      0.4004      0.2047       0.000    
  10    10.00       9.940       9.871       9.820       9.778       9.733       9.685       9.638       9.571       9.488    
        9.387       9.276       9.178       9.084       8.977       8.815       8.650       8.533       8.440       8.347    
        8.265       8.154       8.023       7.894       7.754       7.526       7.148       6.738       6.387       6.139    
        5.935       5.702       5.427       5.105       4.760       4.494       4.314       4.141       3.912       3.616    
        3.194       2.674       2.156       1.734       1.341      0.9719      0.6428      0.4253      0.2285       0.000    
  11    10.00       9.927       9.871       9.830       9.788       9.749       9.705       9.641       9.550       9.458    
        9.357       9.249       9.158       9.047       8.903       8.749       8.613       8.509       8.424       8.329    
        8.211       8.071       7.899       7.752       7.526       7.212       6.888       6.578       6.276       6.084    
        5.925       5.637       5.331       5.063       4.794       4.581       4.391       4.170       3.889       3.532    
        3.135       2.732       2.234       1.817       1.442       1.076      0.7224      0.4177      0.1751       0.000    
  12    10.00       9.929       9.878       9.834       9.799       9.758       9.708       9.619       9.514       9.427    
        9.334       9.222       9.112       8.982       8.856       8.715       8.584       8.494       8.401       8.274    
        8.086       7.880       7.680       7.477       7.179       6.939       6.744       6.443       6.187       6.030    
        5.847       5.586       5.325       5.072       4.871       4.668       4.425       4.157       3.814       3.455    
        3.118       2.753       2.272       1.862       1.509       1.124      0.7605      0.3942      0.1308       0.000    
  13    10.00       9.943       9.894       9.848       9.806       9.759       9.679       9.578       9.480       9.391    
        9.287       9.179       9.067       8.933       8.795       8.662       8.567       8.458       8.339       8.101    
        7.822       7.605       7.383       7.116       6.883       6.759       6.542       6.277       6.127       5.979    
        5.760       5.525       5.316       5.118       4.941       4.753       4.462       4.097       3.766       3.427    
        3.104       2.726       2.209       1.828       1.524       1.116      0.6995      0.3407      0.1042       0.000    
  14    10.00       9.956       9.914       9.865       9.808       9.730       9.628       9.527       9.440       9.343    
        9.237       9.137       9.011       8.872       8.752       8.637       8.499       8.363       8.136       7.786    
        7.516       7.304       7.011       6.797       6.679       6.564       6.352       6.180       6.040       5.890    
        5.694       5.512       5.357       5.176       4.983       4.791       4.466       4.067       3.725       3.375    
        3.043       2.574       2.082       1.782       1.437       1.070      0.7014      0.3158      8.9936E-02   0.000    
  15    10.00       9.965       9.922       9.868       9.799       9.687       9.564       9.476       9.394       9.299    
        9.217       9.115       8.957       8.801       8.691       8.522       8.350       8.206       7.867       7.482    
        7.235       6.953       6.699       6.610       6.540       6.402       6.219       6.057       5.945       5.823    
        5.665       5.526       5.392       5.230       5.037       4.804       4.426       3.987       3.626       3.306    
        2.950       2.477       2.088       1.713       1.303      0.9797      0.6274      0.2899      9.8064E-02   0.000    
  16    10.00       9.971       9.925       9.858       9.758       9.626       9.517       9.447       9.375       9.281    
        9.183       9.037       8.844       8.695       8.542       8.349       8.233       7.954       7.475       7.133    
        6.908       6.660       6.560       6.502       6.386       6.211       6.066       5.976       5.907       5.798    
        5.661       5.532       5.419       5.259       5.026       4.718       4.291       3.912       3.624       3.283    
        2.870       2.404       1.986       1.580       1.227      0.8685      0.5634      0.2931      0.1046       0.000    
  17    10.00       9.967       9.912       9.824       9.711       9.575       9.479       9.418       9.334       9.236    
        9.067       8.866       8.706       8.556       8.362       8.170       7.934       7.490       7.079       6.857    
        6.675       6.533       6.462       6.343       6.167       6.040       5.990       5.950       5.880       5.766    
        5.644       5.528       5.409       5.254       4.933       4.532       4.202       3.950       3.669       3.257    
        2.734       2.279       1.892       1.510       1.101      0.7250      0.4806      0.2664      0.1109       0.000    
  18    10.00       9.954       9.883       9.781       9.634       9.521       9.453       9.364       9.265       9.120    
        8.909       8.743       8.594       8.371       8.119       7.856       7.522       7.126       6.867       6.692    
        6.550       6.425       6.311       6.153       6.027       5.982       5.957       5.922       5.843       5.734    
        5.626       5.509       5.359       5.123       4.797       4.470       4.205       3.997       3.646       3.143    
        2.639       2.162       1.773       1.415       1.023      0.6693      0.4065      0.2227      0.1039       0.000    
  19    10.00       9.938       9.857       9.709       9.564       9.498       9.414       9.300       9.181       9.019    
        8.832       8.669       8.435       8.118       7.853       7.591       7.227       6.896       6.727       6.611    
        6.461       6.305       6.178       6.042       5.971       5.944       5.916       5.864       5.782       5.689    
        5.588       5.460       5.264       5.018       4.746       4.465       4.235       3.970       3.476       2.982    
        2.584       2.096       1.674       1.325      0.9398      0.6034      0.3660      0.2114      0.1058       0.000    
  20    10.00       9.920       9.796       9.643       9.537       9.463       9.371       9.250       9.109       8.959    
        8.766       8.526       8.208       7.916       7.679       7.362       7.025       6.851       6.708       6.550    
        6.389       6.226       6.071       5.968       5.919       5.879       5.825       5.774       5.699       5.618    
        5.522       5.396       5.199       4.973       4.724       4.480       4.235       3.826       3.307       2.887    
        2.448       1.976       1.602       1.253      0.8939      0.5422      0.3178      0.2133      0.1077       0.000    
  21    10.00       9.874       9.747       9.623       9.512       9.429       9.329       9.176       9.034       8.889    
        8.640       8.338       8.039       7.796       7.540       7.233       6.990       6.838       6.674       6.501    
        6.305       6.121       5.984       5.880       5.802       5.735       5.693       5.649       5.575       5.513    
        5.439       5.311       5.138       4.937       4.711       4.473       4.127       3.712       3.259       2.760    
        2.318       1.876       1.553       1.232      0.7764      0.4574      0.3255      0.2374      0.1140       0.000    
  22    10.00       9.855       9.707       9.586       9.493       9.394       9.248       9.098       8.971       8.782    
        8.519       8.203       7.943       7.740       7.458       7.174       6.967       6.810       6.647       6.440    
        6.215       6.029       5.854       5.697       5.594       5.546       5.515       5.462       5.432       5.394    
        5.332       5.225       5.090       4.900       4.683       4.452       4.088       3.666       3.133       2.641    
        2.259       1.858       1.499       1.025      0.6377      0.4580      0.3441      0.2287      9.0745E-02   0.000    
  23    10.00       9.824       9.680       9.580       9.479       9.332       9.169       9.051       8.892       8.695    
        8.427       8.144       7.942       7.686       7.381       7.132       6.957       6.814       6.630       6.383    
        6.142       5.924       5.693       5.417       5.172       5.129       5.203       5.238       5.276       5.278    
        5.240       5.156       5.032       4.876       4.664       4.417       4.074       3.547       2.985       2.579    
        2.213       1.757       1.244      0.8349      0.6209      0.4693      0.3430      0.2174      0.1012       0.000    
  24    10.00       9.801       9.697       9.582       9.440       9.280       9.151       9.023       8.866       8.638    
        8.390       8.170       7.948       7.638       7.315       7.118       6.974       6.825       6.604       6.355    
        6.117       5.867       5.515       4.882       3.926       4.261       4.705       4.980       5.117       5.162    
        5.153       5.087       4.988       4.826       4.622       4.371       3.944       3.387       2.907       2.477    
        2.033       1.553       1.100      0.7946      0.6166      0.4658      0.3345      0.2534      0.1394       0.000    
  25    10.00       9.827       9.717       9.579       9.430       9.286       9.154       9.032       8.841       8.613    
        8.404       8.191       7.919       7.578       7.328       7.149       6.989       6.815       6.609       6.379    
        6.123       5.876       5.236       3.883      0.7940       3.321       4.276       4.748       4.986       5.079    
        5.085       5.040       4.936       4.746       4.529       4.227       3.787       3.253       2.818       2.352    
        1.841       1.389       1.021      0.7846      0.6404      0.5003      0.3654      0.2692      0.1756       0.000    
  26    10.00       9.852       9.749       9.601       9.447       9.320       9.184       9.029       8.832       8.654    
        8.474       8.191       7.846       7.555       7.372       7.213       7.024       6.799       6.581       6.383    
        6.188       5.918       5.334       4.361       3.331       3.854       4.411       4.752       4.952       5.044    
        5.040       4.991       4.866       4.678       4.469       4.141       3.567       3.077       2.714       2.148    
        1.596       1.224       1.008      0.8503      0.6972      0.5420      0.4017      0.2941      0.1756       0.000    
  27    10.00       9.885       9.760       9.634       9.496       9.350       9.213       9.063       8.886       8.715    
        8.472       8.136       7.837       7.601       7.442       7.263       7.015       6.767       6.591       6.435    
        6.274       5.999       5.566       5.037       4.477       4.508       4.707       4.883       5.002       5.040    
        5.015       4.955       4.833       4.643       4.362       3.855       3.319       2.940       2.388       1.839    
        1.447       1.206       1.050      0.9160      0.7749      0.5960      0.4289      0.3210      0.2157       0.000    
  28    10.00       9.896       9.790       9.670       9.544       9.405       9.263       9.112       8.944       8.745    
        8.445       8.139       7.880       7.654       7.490       7.307       7.097       6.857       6.628       6.476    
        6.333       6.138       5.855       5.469       5.123       4.970       4.984       5.059       5.076       5.062    
        5.004       4.924       4.779       4.519       4.111       3.589       3.144       2.634       2.095       1.735    
        1.452       1.255       1.100      0.9672      0.8222      0.6510      0.4856      0.3648      0.2223       0.000    
  29    10.00       9.901       9.800       9.710       9.589       9.462       9.325       9.172       8.993       8.725    
        8.429       8.160       7.913       7.727       7.537       7.340       7.148       6.958       6.741       6.549    
        6.398       6.236       6.044       5.811       5.501       5.331       5.265       5.228       5.189       5.096    
        4.987       4.839       4.660       4.309       3.836       3.380       2.930       2.423       2.018       1.759    
        1.529       1.312       1.143       1.014      0.8721      0.6966      0.5264      0.3852      0.2245       0.000    
  30    10.00       9.909       9.826       9.747       9.641       9.524       9.401       9.230       9.005       8.731    
        8.426       8.150       7.944       7.758       7.569       7.380       7.220       7.061       6.868       6.664    
        6.487       6.339       6.175       6.008       5.806       5.617       5.532       5.405       5.294       5.127    
        4.926       4.687       4.442       4.080       3.711       3.291       2.831       2.373       2.079       1.844    
        1.584       1.371       1.208       1.053      0.8943      0.7390      0.5605      0.4012      0.2424       0.000    
  31    10.00       9.924       9.852       9.778       9.701       9.608       9.473       9.269       9.008       8.722    
        8.426       8.170       7.972       7.782       7.614       7.439       7.275       7.153       6.967       6.772    
        6.604       6.451       6.305       6.144       6.000       5.851       5.706       5.552       5.354       5.113    
        4.815       4.527       4.282       4.010       3.649       3.218       2.786       2.413       2.178       1.967    
        1.697       1.451       1.261       1.098      0.9394      0.7749      0.5962      0.4283      0.2357       0.000    
  32    10.00       9.936       9.881       9.815       9.740       9.655       9.520       9.287       9.040       8.779    
        8.466       8.199       8.001       7.822       7.650       7.502       7.359       7.207       7.054       6.872    
        6.692       6.527       6.375       6.215       6.089       5.987       5.825       5.617       5.335       5.018    
        4.718       4.459       4.217       3.964       3.623       3.239       2.878       2.554       2.303       2.064    
        1.812       1.556       1.353       1.163      0.9817      0.8332      0.6502      0.4283      0.2126       0.000    
  33    10.00       9.945       9.899       9.846       9.773       9.676       9.502       9.276       9.069       8.825    
        8.518       8.253       8.047       7.849       7.687       7.563       7.437       7.285       7.119       6.944    
        6.758       6.578       6.396       6.247       6.148       6.046       5.842       5.558       5.267       4.983    
        4.703       4.478       4.243       3.934       3.617       3.273       2.965       2.704       2.442       2.180    
        1.945       1.702       1.480       1.280       1.079      0.9035      0.6981      0.4367      0.2056       0.000    
  34    10.00       9.950       9.919       9.873       9.782       9.646       9.477       9.310       9.096       8.830    
        8.557       8.296       8.073       7.873       7.731       7.634       7.500       7.343       7.157       6.988    
        6.812       6.599       6.420       6.285       6.180       6.030       5.784       5.536       5.248       4.938    
        4.706       4.520       4.301       3.998       3.680       3.369       3.086       2.851       2.583       2.320    
        2.097       1.873       1.638       1.434       1.221       1.014      0.7531      0.4836      0.2550       0.000    
  35    10.00       9.959       9.923       9.864       9.749       9.605       9.481       9.338       9.139       8.850    
        8.557       8.312       8.084       7.914       7.797       7.688       7.543       7.366       7.181       6.992    
        6.804       6.608       6.424       6.296       6.179       6.033       5.784       5.492       5.186       4.898    
        4.729       4.546       4.315       4.085       3.816       3.489       3.207       3.017       2.747       2.455    
        2.246       2.022       1.799       1.598       1.361       1.130      0.8674      0.5789      0.2893       0.000    
  36    10.00       9.955       9.905       9.838       9.723       9.586       9.474       9.338       9.137       8.863    
        8.555       8.286       8.116       7.986       7.873       7.734       7.556       7.378       7.173       6.919    
        6.720       6.560       6.405       6.292       6.183       6.006       5.733       5.435       5.125       4.878    
        4.722       4.565       4.356       4.140       3.912       3.616       3.336       3.130       2.894       2.581    
        2.345       2.120       1.892       1.726       1.497       1.242      0.9802      0.6789      0.3453       0.000    
  37    10.00       9.941       9.885       9.811       9.695       9.568       9.442       9.309       9.123       8.826    
        8.512       8.293       8.189       8.062       7.912       7.767       7.555       7.332       7.062       6.801    
        6.663       6.536       6.388       6.266       6.135       5.915       5.663       5.346       5.081       4.907    
        4.755       4.587       4.374       4.187       3.951       3.669       3.449       3.250       2.988       2.676    
        2.395       2.175       1.994       1.809       1.592       1.355       1.104      0.7661      0.4150       0.000    
  38    10.00       9.934       9.860       9.781       9.673       9.549       9.407       9.268       9.068       8.791    
        8.551       8.376       8.243       8.124       7.950       7.716       7.467       7.182       6.887       6.729    
        6.623       6.462       6.313       6.211       6.060       5.836       5.532       5.254       5.109       4.971    
        4.801       4.613       4.411       4.222       3.990       3.734       3.538       3.335       3.024       2.698    
        2.454       2.251       2.067       1.882       1.689       1.461       1.201      0.8765      0.4547       0.000    
  39    10.00       9.915       9.841       9.761       9.655       9.514       9.361       9.213       9.029       8.806    
        8.616       8.485       8.334       8.157       7.884       7.573       7.258       6.950       6.777       6.684    
        6.527       6.350       6.243       6.147       6.000       5.742       5.452       5.282       5.156       5.010    
        4.827       4.649       4.446       4.245       4.049       3.838       3.612       3.376       3.056       2.735    
        2.480       2.276       2.133       1.986       1.777       1.543       1.282      0.9286      0.4547       0.000    
  40    10.00       9.901       9.828       9.747       9.639       9.491       9.333       9.182       9.026       8.839    
        8.682       8.566       8.367       8.070       7.715       7.364       7.047       6.844       6.736       6.611    
        6.435       6.286       6.194       6.070       5.899       5.689       5.505       5.338       5.190       5.052    
        4.883       4.686       4.480       4.292       4.113       3.899       3.656       3.419       3.072       2.722    
        2.491       2.322       2.173       2.047       1.835       1.575       1.335      0.9647      0.4763       0.000    
  41    10.00       9.908       9.821       9.732       9.611       9.477       9.337       9.202       9.052       8.883    
        8.733       8.585       8.304       7.919       7.527       7.211       6.967       6.799       6.685       6.539    
        6.360       6.234       6.125       5.993       5.847       5.701       5.568       5.408       5.230       5.071    
        4.919       4.732       4.525       4.355       4.167       3.959       3.711       3.381       2.997       2.728    
        2.541       2.365       2.228       2.069       1.846       1.588       1.376       1.024      0.5243       0.000    
  42    10.00       9.910       9.814       9.731       9.625       9.499       9.360       9.209       9.073       8.942    
        8.756       8.481       8.125       7.727       7.376       7.136       6.926       6.768       6.633       6.459    
        6.294       6.176       6.063       5.971       5.851       5.746       5.623       5.438       5.248       5.107    
        4.974       4.772       4.551       4.390       4.230       3.997       3.678       3.284       2.943       2.738    
        2.589       2.440       2.271       2.064       1.832       1.625       1.411       1.066      0.5485       0.000    
  43    10.00       9.911       9.822       9.737       9.653       9.540       9.400       9.249       9.099       8.907    
        8.632       8.314       7.950       7.569       7.300       7.099       6.901       6.735       6.570       6.397    
        6.245       6.134       6.053       5.983       5.879       5.765       5.644       5.463       5.293       5.179    
        5.011       4.789       4.582       4.424       4.240       3.954       3.580       3.200       2.963       2.802    
        2.644       2.483       2.276       2.053       1.842       1.641       1.449       1.063      0.4788       0.000    
  44    10.00       9.905       9.824       9.750       9.656       9.570       9.450       9.264       9.059       8.788    
        8.509       8.175       7.777       7.502       7.295       7.073       6.856       6.664       6.485       6.331    
        6.223       6.137       6.063       5.991       5.900       5.784       5.642       5.500       5.369       5.225    
        5.064       4.863       4.629       4.406       4.190       3.899       3.509       3.180       2.991       2.835    
        2.684       2.506       2.299       2.100       1.878       1.656       1.405      0.9100      0.4022       0.000    
  45    10.00       9.905       9.838       9.753       9.664       9.586       9.409       9.196       8.953       8.685    
        8.451       8.050       7.682       7.476       7.264       7.020       6.774       6.577       6.421       6.312    
        6.236       6.161       6.083       5.996       5.899       5.793       5.674       5.554       5.447       5.299    
        5.105       4.891       4.654       4.385       4.140       3.824       3.457       3.199       3.044       2.887    
        2.691       2.486       2.304       2.124       1.931       1.692       1.267      0.7627      0.3863       0.000    
  46    10.00       9.921       9.849       9.759       9.661       9.513       9.326       9.148       8.925       8.664    
        8.326       7.957       7.662       7.405       7.188       6.947       6.701       6.548       6.431       6.332    
        6.261       6.192       6.099       5.996       5.900       5.806       5.709       5.603       5.495       5.359    
        5.179       4.955       4.692       4.387       4.046       3.707       3.441       3.265       3.092       2.912    
        2.686       2.472       2.291       2.147       1.939       1.605       1.136      0.7184      0.3650       0.000    
  47    10.00       9.939       9.872       9.777       9.608       9.428       9.268       9.116       8.916       8.589    
        8.224       7.882       7.598       7.383       7.150       6.883       6.671       6.535       6.443       6.361    
        6.285       6.204       6.112       6.011       5.916       5.835       5.750       5.644       5.521       5.385    
        5.226       5.027       4.686       4.284       3.964       3.714       3.483       3.332       3.173       2.923    
        2.654       2.429       2.261       2.143       1.883       1.485       1.054      0.6912      0.3548       0.000    
  48    10.00       9.946       9.875       9.733       9.561       9.413       9.241       9.088       8.874       8.530    
        8.132       7.822       7.593       7.335       7.064       6.825       6.666       6.533       6.444       6.384    
        6.308       6.210       6.110       6.021       5.946       5.877       5.796       5.679       5.532       5.375    
        5.210       4.982       4.629       4.299       4.020       3.772       3.556       3.385       3.179       2.880    
        2.596       2.415       2.275       2.055       1.707       1.351       1.006      0.6961      0.3745       0.000    
  49    10.00       9.943       9.842       9.714       9.574       9.401       9.229       9.056       8.791       8.427    
        8.084       7.795       7.517       7.273       7.065       6.839       6.634       6.514       6.455       6.397    
        6.326       6.215       6.103       6.030       5.968       5.914       5.822       5.680       5.515       5.364    
        5.191       4.913       4.615       4.394       4.137       3.847       3.585       3.378       3.142       2.823    
        2.593       2.435       2.226       1.894       1.585       1.294      0.9949      0.6960      0.3732       0.000    
  50    10.00       9.935       9.830       9.699       9.573       9.411       9.218       9.002       8.724       8.436    
        8.078       7.715       7.458       7.263       7.087       6.833       6.606       6.516       6.464       6.404    
        6.333       6.219       6.105       6.035       5.982       5.932       5.827       5.665       5.497       5.354    
        5.176       4.890       4.659       4.461       4.192       3.904       3.629       3.347       3.024       2.757    
        2.638       2.459       2.136       1.803       1.573       1.292       1.009      0.6816      0.3039       0.000    

 HEAD WILL BE SAVED ON UNIT   51 AT END OF TIME STEP  23, STRESS PERIOD    2

 DRAWDOWN WILL BE SAVED ON UNIT   52 AT END OF TIME STEP  23, STRESS PERIOD    2
1
  VOLUMETRIC BUDGET FOR ENTIRE MODEL AT END OF TIME STEP 23 IN STRESS PERIOD   2
  ------------------------------------------------------------------------------

     CUMULATIVE VOLUMES      L**3       RATES FOR THIS TIME STEP      L**3/T
     ------------------                 ------------------------

           IN:                                      IN:
           ---                                      ---
             STORAGE =       11485.9746               STORAGE =         497.0697
       CONSTANT HEAD =       14343.6279         CONSTANT HEAD =         599.8810
               WELLS =           0.0000                 WELLS =           0.0000

            TOTAL IN =       25829.6016              TOTAL IN =        1096.9507

          OUT:                                     OUT:
          ----                                     ----
             STORAGE =       9.4320E-03               STORAGE =           0.0000
       CONSTANT HEAD =       14329.5938         CONSTANT HEAD =         596.9507
               WELLS =       11500.0000                 WELLS =         500.0000

           TOTAL OUT =       25829.6035             TOTAL OUT =        1096.9507

            IN - OUT =      -1.9531E-03              IN - OUT =           0.0000

 PERCENT DISCREPANCY =           0.00     PERCENT DISCREPANCY =           0.00






          TIME SUMMARY AT END OF TIME STEP  23 IN STRESS PERIOD    2
                    SECONDS     MINUTES      HOURS       DAYS        YEARS
                    -----------------------------------------------------------
   TIME STEP LENGTH  86400.      1440.0      24.000      1.0000     2.73785E-03
 STRESS PERIOD TIME 1.98720E+06  33120.      552.00      23.000     6.29706E-02
         TOTAL TIME 2.07360E+06  34560.      576.00      24.000     6.57084E-02
1
 
 SOLVING FOR HEAD 

 OUTPUT CONTROL FOR STRESS PERIOD    2   TIME STEP  24
    SAVE HEAD FOR ALL LAYERS
    SAVE DRAWDOWN FOR ALL LAYERS
    SAVE BUDGET
    PRINT HEAD FOR ALL LAYERS
    PRINT BUDGET
 UBDSV1 SAVING "         STORAGE" ON UNIT  53 AT TIME STEP 24, STRESS PERIOD   2
 UBDSV2 SAVING "   CONSTANT HEAD" ON UNIT  53 AT TIME STEP 24, STRESS PERIOD   2
 UBDSV1 SAVING "FLOW RIGHT FACE " ON UNIT  53 AT TIME STEP 24, STRESS PERIOD   2
 UBDSV1 SAVING "FLOW FRONT FACE " ON UNIT  53 AT TIME STEP 24, STRESS PERIOD   2
1
              HEAD IN LAYER   1 AT END OF TIME STEP  24 IN STRESS PERIOD    2
  ---------------------------------------------------------------------------

            1           2           3           4           5           6           7           8           9          10
           11          12          13          14          15          16          17          18          19          20
           21          22          23          24          25          26          27          28          29          30
           31          32          33          34          35          36          37          38          39          40
           41          42          43          44          45          46          47          48          49          50
 ........................................................................................................................
   1    10.00       9.959       9.901       9.835       9.771       9.698       9.629       9.561       9.475       9.391    
        9.325       9.261       9.195       9.131       9.028       8.903       8.764       8.654       8.597       8.530    
        8.450       8.386       8.323       8.248       8.149       7.953       7.731       7.575       7.422       7.278    
        7.090       6.789       6.405       5.979       5.537       5.068       4.603       4.217       3.712       3.164    
        2.714       2.284       1.807       1.407       1.161      0.9521      0.7866      0.6667      0.4475       0.000    
   2    10.00       9.958       9.906       9.839       9.774       9.710       9.641       9.551       9.457       9.388    
        9.332       9.277       9.222       9.143       9.024       8.893       8.762       8.654       8.595       8.521    
        8.441       8.393       8.341       8.264       8.138       7.947       7.745       7.584       7.429       7.289    
        7.079       6.765       6.362       5.877       5.406       4.952       4.550       4.176       3.663       3.133    
        2.681       2.197       1.762       1.448       1.216       1.037      0.8314      0.6490      0.3620       0.000    
   3    10.00       9.953       9.900       9.841       9.784       9.719       9.631       9.536       9.470       9.408    
        9.345       9.295       9.246       9.169       9.048       8.887       8.744       8.657       8.588       8.512    
        8.447       8.397       8.344       8.242       8.106       7.935       7.761       7.634       7.454       7.270    
        7.007       6.635       6.177       5.708       5.289       4.864       4.470       4.070       3.538       3.047    
        2.659       2.212       1.813       1.525       1.295       1.108      0.8651      0.5800      0.2630       0.000    
   4    10.00       9.953       9.901       9.844       9.779       9.704       9.613       9.541       9.484       9.420    
        9.364       9.323       9.268       9.182       9.064       8.893       8.744       8.662       8.585       8.518    
        8.448       8.386       8.319       8.212       8.078       7.926       7.768       7.613       7.454       7.246    
        6.916       6.427       5.942       5.585       5.234       4.795       4.321       3.852       3.427       3.054    
        2.691       2.275       1.899       1.638       1.379       1.142      0.8407      0.5218      0.2499       0.000    
   5    10.00       9.950       9.898       9.833       9.768       9.698       9.616       9.554       9.494       9.435    
        9.387       9.346       9.275       9.174       9.044       8.889       8.762       8.672       8.597       8.507    
        8.424       8.357       8.276       8.171       8.051       7.897       7.740       7.597       7.436       7.185    
        6.716       6.172       5.783       5.503       5.155       4.678       4.188       3.761       3.441       3.104    
        2.746       2.362       1.988       1.745       1.466       1.124      0.7654      0.4654      0.2341       0.000    
   6    10.00       9.943       9.881       9.827       9.768       9.691       9.623       9.569       9.507       9.450    
        9.405       9.355       9.266       9.153       9.040       8.910       8.783       8.679       8.580       8.476    
        8.393       8.315       8.245       8.151       7.998       7.847       7.720       7.575       7.353       6.976    
        6.462       5.970       5.646       5.402       5.088       4.616       4.126       3.763       3.492       3.185    
        2.855       2.517       2.132       1.807       1.437       1.061      0.6762      0.4018      0.2212       0.000    
   7    10.00       9.931       9.872       9.822       9.760       9.696       9.635       9.585       9.527       9.472    
        9.416       9.341       9.244       9.138       9.030       8.929       8.796       8.657       8.543       8.441    
        8.354       8.279       8.218       8.101       7.946       7.817       7.689       7.497       7.149       6.670    
        6.178       5.777       5.555       5.335       4.970       4.529       4.197       3.842       3.544       3.342    
        3.027       2.663       2.211       1.747       1.333      0.9214      0.5829      0.4049      0.2084       0.000    
   8    10.00       9.931       9.877       9.820       9.758       9.702       9.648       9.597       9.544       9.492    
        9.418       9.324       9.228       9.127       9.028       8.914       8.751       8.604       8.511       8.413    
        8.316       8.251       8.163       8.040       7.905       7.770       7.558       7.263       6.830       6.410    
        6.037       5.721       5.514       5.262       4.873       4.507       4.207       3.944       3.709       3.474    
        3.167       2.708       2.154       1.658       1.228      0.8631      0.6173      0.3967      0.1902       0.000    
   9    10.00       9.942       9.877       9.815       9.769       9.722       9.668       9.614       9.556       9.499    
        9.415       9.308       9.204       9.104       8.999       8.865       8.708       8.573       8.472       8.373    
        8.287       8.204       8.085       7.969       7.846       7.684       7.383       6.988       6.583       6.275    
        5.966       5.698       5.469       5.154       4.791       4.481       4.252       4.054       3.843       3.585    
        3.216       2.716       2.150       1.657       1.237      0.8826      0.6231      0.4004      0.2047       0.000    
  10    10.00       9.939       9.871       9.820       9.778       9.733       9.684       9.638       9.570       9.488    
        9.386       9.275       9.176       9.083       8.975       8.812       8.647       8.530       8.437       8.343    
        8.262       8.150       8.019       7.889       7.748       7.520       7.141       6.731       6.380       6.131    
        5.928       5.696       5.422       5.100       4.756       4.490       4.310       4.138       3.910       3.614    
        3.193       2.673       2.156       1.734       1.341      0.9718      0.6428      0.4253      0.2285       0.000    
  11    10.00       9.927       9.871       9.830       9.788       9.749       9.705       9.640       9.549       9.457    
        9.356       9.247       9.157       9.046       8.901       8.746       8.610       8.506       8.420       8.325    
        8.207       8.066       7.893       7.746       7.518       7.204       6.879       6.568       6.267       6.075    
        5.917       5.629       5.324       5.057       4.789       4.577       4.388       4.167       3.886       3.530    
        3.134       2.732       2.233       1.817       1.442       1.076      0.7224      0.4177      0.1751       0.000    
  12    10.00       9.929       9.878       9.834       9.798       9.758       9.708       9.618       9.513       9.426    
        9.332       9.220       9.110       8.980       8.853       8.712       8.580       8.490       8.397       8.269    
        8.080       7.873       7.671       7.468       7.168       6.927       6.732       6.432       6.176       6.020    
        5.838       5.577       5.317       5.065       4.865       4.663       4.421       4.153       3.812       3.453    
        3.117       2.753       2.271       1.862       1.508       1.124      0.7604      0.3942      0.1308       0.000    
  13    10.00       9.943       9.894       9.848       9.806       9.758       9.679       9.577       9.479       9.390    
        9.286       9.177       9.064       8.930       8.791       8.658       8.563       8.454       8.334       8.094    
        7.813       7.594       7.371       7.103       6.868       6.744       6.528       6.263       6.113       5.967    
        5.749       5.515       5.307       5.110       4.934       4.747       4.457       4.094       3.764       3.425    
        3.102       2.725       2.209       1.828       1.524       1.116      0.6995      0.3406      0.1042       0.000    
  14    10.00       9.956       9.914       9.865       9.807       9.730       9.628       9.526       9.439       9.341    
        9.235       9.135       9.008       8.869       8.748       8.632       8.493       8.357       8.128       7.775    
        7.504       7.290       6.995       6.780       6.663       6.547       6.335       6.163       6.024       5.875    
        5.681       5.500       5.346       5.166       4.975       4.784       4.461       4.063       3.722       3.373    
        3.042       2.573       2.082       1.782       1.437       1.070      0.7014      0.3158      8.9928E-02   0.000    
  15    10.00       9.965       9.922       9.867       9.799       9.687       9.564       9.475       9.393       9.298    
        9.215       9.113       8.954       8.797       8.687       8.516       8.343       8.198       7.856       7.468    
        7.219       6.935       6.680       6.591       6.521       6.383       6.200       6.039       5.927       5.807    
        5.650       5.512       5.379       5.219       5.027       4.796       4.420       3.983       3.623       3.304    
        2.949       2.476       2.088       1.713       1.303      0.9795      0.6273      0.2899      9.8054E-02   0.000    
  16    10.00       9.971       9.925       9.858       9.758       9.626       9.516       9.446       9.374       9.279    
        9.181       9.034       8.840       8.690       8.536       8.341       8.224       7.943       7.459       7.114    
        6.888       6.639       6.539       6.481       6.365       6.190       6.045       5.956       5.888       5.781    
        5.645       5.517       5.405       5.246       5.016       4.710       4.285       3.908       3.621       3.280    
        2.868       2.403       1.986       1.579       1.227      0.8683      0.5633      0.2930      0.1046       0.000    
  17    10.00       9.967       9.912       9.823       9.710       9.574       9.478       9.417       9.333       9.234    
        9.064       8.862       8.700       8.549       8.353       8.160       7.922       7.473       7.059       6.836    
        6.653       6.511       6.439       6.320       6.144       6.017       5.968       5.928       5.860       5.747    
        5.627       5.512       5.395       5.240       4.923       4.524       4.196       3.944       3.665       3.254    
        2.733       2.278       1.891       1.510       1.101      0.7249      0.4806      0.2664      0.1109       0.000    
  18    10.00       9.954       9.883       9.781       9.634       9.520       9.452       9.363       9.263       9.118    
        8.906       8.738       8.587       8.362       8.108       7.842       7.505       7.106       6.845       6.669    
        6.527       6.401       6.288       6.129       6.004       5.959       5.934       5.899       5.822       5.714    
        5.608       5.492       5.344       5.110       4.786       4.461       4.198       3.992       3.641       3.140    
        2.638       2.161       1.772       1.415       1.022      0.6691      0.4064      0.2227      0.1039       0.000    
  19    10.00       9.938       9.857       9.709       9.563       9.497       9.413       9.299       9.179       9.016    
        8.828       8.664       8.427       8.107       7.839       7.575       7.207       6.873       6.704       6.587    
        6.437       6.281       6.153       6.018       5.946       5.920       5.892       5.841       5.759       5.668    
        5.568       5.442       5.249       5.004       4.734       4.456       4.227       3.964       3.471       2.979    
        2.582       2.095       1.674       1.325      0.9396      0.6033      0.3659      0.2114      0.1058       0.000    
  20    10.00       9.920       9.796       9.643       9.536       9.462       9.369       9.248       9.106       8.955    
        8.761       8.518       8.198       7.902       7.663       7.343       7.003       6.828       6.684       6.525    
        6.364       6.201       6.045       5.943       5.894       5.854       5.800       5.750       5.675       5.595    
        5.501       5.376       5.182       4.959       4.712       4.471       4.227       3.820       3.303       2.885    
        2.446       1.975       1.601       1.253      0.8937      0.5421      0.3177      0.2133      0.1077       0.000    
  21    10.00       9.874       9.747       9.622       9.511       9.428       9.327       9.174       9.031       8.885    
        8.634       8.329       8.027       7.781       7.522       7.213       6.967       6.814       6.650       6.476    
        6.280       6.095       5.958       5.854       5.776       5.709       5.667       5.624       5.549       5.488    
        5.416       5.290       5.119       4.921       4.698       4.463       4.119       3.707       3.255       2.758    
        2.316       1.875       1.552       1.232      0.7762      0.4574      0.3254      0.2374      0.1140       0.000    
  22    10.00       9.855       9.707       9.586       9.492       9.393       9.247       9.095       8.968       8.777    
        8.512       8.193       7.929       7.724       7.440       7.153       6.945       6.787       6.623       6.415    
        6.189       6.003       5.827       5.670       5.567       5.519       5.488       5.435       5.406       5.368    
        5.308       5.203       5.070       4.884       4.670       4.441       4.079       3.661       3.130       2.639    
        2.258       1.857       1.499       1.025      0.6376      0.4579      0.3440      0.2286      9.0733E-02   0.000    
  23    10.00       9.824       9.679       9.580       9.478       9.330       9.167       9.048       8.888       8.689    
        8.418       8.133       7.929       7.670       7.362       7.111       6.935       6.790       6.606       6.357    
        6.116       5.897       5.666       5.390       5.144       5.100       5.174       5.209       5.248       5.251    
        5.215       5.133       5.012       4.858       4.650       4.405       4.065       3.542       2.982       2.578    
        2.212       1.757       1.244      0.8347      0.6208      0.4692      0.3430      0.2174      0.1012       0.000    
  24    10.00       9.800       9.696       9.582       9.439       9.278       9.148       9.020       8.862       8.632    
        8.381       8.159       7.934       7.622       7.296       7.096       6.951       6.802       6.580       6.329    
        6.090       5.840       5.487       4.853       3.896       4.230       4.675       4.950       5.088       5.134    
        5.127       5.064       4.967       4.808       4.607       4.359       3.936       3.382       2.905       2.475    
        2.032       1.552       1.100      0.7945      0.6165      0.4658      0.3345      0.2533      0.1394       0.000    
  25    10.00       9.826       9.717       9.579       9.429       9.285       9.152       9.029       8.836       8.606    
        8.396       8.181       7.906       7.562       7.308       7.128       6.967       6.791       6.585       6.353    
        6.097       5.848       5.207       3.853      0.7604       3.288       4.244       4.717       4.956       5.051    
        5.059       5.015       4.915       4.728       4.515       4.216       3.780       3.248       2.815       2.351    
        1.840       1.389       1.021      0.7845      0.6404      0.5002      0.3654      0.2691      0.1756       0.000    
  26    10.00       9.852       9.748       9.600       9.445       9.319       9.181       9.026       8.827       8.648    
        8.466       8.180       7.832       7.538       7.354       7.193       7.003       6.775       6.556       6.358    
        6.161       5.891       5.305       4.330       3.299       3.821       4.378       4.720       4.921       5.016    
        5.014       4.967       4.845       4.661       4.454       4.130       3.561       3.073       2.711       2.147    
        1.595       1.224       1.008      0.8501      0.6971      0.5420      0.4016      0.2941      0.1756       0.000    
  27    10.00       9.885       9.759       9.633       9.495       9.348       9.211       9.060       8.881       8.709    
        8.465       8.125       7.823       7.585       7.424       7.243       6.993       6.744       6.567       6.410    
        6.248       5.972       5.538       5.007       4.445       4.476       4.674       4.851       4.972       5.012    
        4.989       4.931       4.812       4.626       4.349       3.847       3.314       2.937       2.387       1.838    
        1.447       1.206       1.050      0.9159      0.7748      0.5960      0.4288      0.3209      0.2157       0.000    
  28    10.00       9.895       9.789       9.669       9.543       9.404       9.261       9.109       8.940       8.739    
        8.438       8.129       7.867       7.639       7.473       7.289       7.077       6.835       6.604       6.451    
        6.307       6.112       5.827       5.439       5.092       4.938       4.952       5.028       5.046       5.034    
        4.979       4.901       4.759       4.504       4.100       3.583       3.140       2.632       2.094       1.735    
        1.452       1.255       1.100      0.9670      0.8221      0.6509      0.4856      0.3647      0.2223       0.000    
  29    10.00       9.900       9.800       9.710       9.588       9.460       9.323       9.169       8.989       8.719    
        8.422       8.151       7.901       7.713       7.521       7.323       7.129       6.938       6.719       6.525    
        6.373       6.210       6.017       5.783       5.471       5.301       5.234       5.198       5.160       5.070    
        4.964       4.819       4.643       4.297       3.828       3.376       2.927       2.421       2.017       1.759    
        1.529       1.312       1.143       1.013      0.8720      0.6966      0.5263      0.3851      0.2245       0.000    
  30    10.00       9.909       9.826       9.746       9.640       9.522       9.399       9.228       9.002       8.725    
        8.418       8.141       7.932       7.745       7.555       7.364       7.203       7.042       6.847       6.641    
        6.463       6.315       6.149       5.981       5.778       5.589       5.504       5.377       5.268       5.103    
        4.906       4.672       4.430       4.072       3.706       3.287       2.829       2.371       2.078       1.843    
        1.583       1.370       1.208       1.053      0.8942      0.7389      0.5605      0.4011      0.2424       0.000    
  31    10.00       9.924       9.852       9.777       9.700       9.607       9.472       9.267       9.004       8.717    
        8.419       8.161       7.962       7.770       7.601       7.424       7.258       7.136       6.947       6.751    
        6.582       6.428       6.281       6.119       5.976       5.827       5.681       5.528       5.331       5.094    
        4.800       4.516       4.274       4.003       3.645       3.215       2.784       2.412       2.178       1.966    
        1.696       1.451       1.261       1.097      0.9393      0.7749      0.5962      0.4283      0.2357       0.000    
  32    10.00       9.936       9.881       9.815       9.740       9.655       9.519       9.285       9.037       8.775    
        8.460       8.191       7.992       7.811       7.638       7.489       7.344       7.190       7.037       6.853    
        6.672       6.506       6.354       6.193       6.067       5.964       5.803       5.596       5.317       5.004    
        4.708       4.451       4.211       3.959       3.620       3.237       2.876       2.553       2.302       2.063    
        1.812       1.555       1.353       1.163      0.9816      0.8331      0.6502      0.4283      0.2126       0.000    
  33    10.00       9.945       9.899       9.846       9.773       9.675       9.501       9.274       9.067       8.821    
        8.513       8.246       8.039       7.839       7.676       7.551       7.424       7.271       7.103       6.927    
        6.740       6.559       6.377       6.228       6.128       6.025       5.823       5.543       5.255       4.973    
        4.696       4.472       4.238       3.930       3.614       3.271       2.964       2.703       2.441       2.180    
        1.945       1.702       1.480       1.280       1.079      0.9034      0.6980      0.4366      0.2056       0.000    
  34    10.00       9.950       9.919       9.873       9.781       9.645       9.477       9.309       9.094       8.827    
        8.553       8.290       8.066       7.864       7.721       7.624       7.488       7.331       7.143       6.974    
        6.797       6.583       6.403       6.268       6.163       6.014       5.769       5.524       5.239       4.931    
        4.700       4.515       4.297       3.995       3.678       3.367       3.085       2.850       2.583       2.320    
        2.096       1.873       1.638       1.433       1.221       1.014      0.7531      0.4836      0.2550       0.000    
  35    10.00       9.958       9.923       9.863       9.749       9.604       9.481       9.337       9.138       8.847    
        8.554       8.307       8.078       7.907       7.789       7.679       7.533       7.355       7.169       6.979    
        6.792       6.595       6.411       6.282       6.166       6.021       5.773       5.483       5.179       4.893    
        4.725       4.542       4.313       4.082       3.814       3.488       3.206       3.017       2.747       2.455    
        2.245       2.022       1.799       1.598       1.361       1.130      0.8674      0.5789      0.2892       0.000    
  36    10.00       9.955       9.905       9.837       9.723       9.585       9.473       9.337       9.135       8.861    
        8.552       8.282       8.111       7.979       7.867       7.727       7.548       7.369       7.163       6.909    
        6.711       6.550       6.395       6.282       6.173       5.997       5.725       5.428       5.121       4.874    
        4.719       4.562       4.354       4.139       3.911       3.615       3.336       3.130       2.894       2.580    
        2.345       2.120       1.892       1.726       1.497       1.242      0.9802      0.6789      0.3453       0.000    
  37    10.00       9.941       9.885       9.811       9.695       9.568       9.442       9.309       9.122       8.824    
        8.509       8.289       8.185       8.057       7.906       7.760       7.548       7.325       7.055       6.794    
        6.655       6.528       6.380       6.258       6.127       5.909       5.658       5.342       5.079       4.905    
        4.753       4.585       4.372       4.186       3.950       3.668       3.448       3.249       2.988       2.676    
        2.395       2.175       1.994       1.809       1.592       1.355       1.104      0.7661      0.4150       0.000    
  38    10.00       9.934       9.860       9.781       9.673       9.548       9.407       9.267       9.067       8.790    
        8.548       8.373       8.239       8.120       7.945       7.711       7.462       7.177       6.882       6.724    
        6.618       6.457       6.307       6.206       6.055       5.832       5.529       5.252       5.107       4.969    
        4.800       4.611       4.410       4.222       3.990       3.734       3.538       3.335       3.023       2.698    
        2.454       2.251       2.067       1.882       1.689       1.461       1.201      0.8764      0.4547       0.000    
  39    10.00       9.915       9.841       9.761       9.655       9.514       9.360       9.212       9.028       8.804    
        8.614       8.482       8.331       8.154       7.881       7.570       7.254       6.947       6.774       6.680    
        6.523       6.347       6.240       6.144       5.997       5.739       5.450       5.280       5.154       5.009    
        4.826       4.648       4.445       4.244       4.049       3.838       3.612       3.376       3.056       2.735    
        2.480       2.276       2.133       1.986       1.777       1.543       1.282      0.9286      0.4547       0.000    
  40    10.00       9.901       9.828       9.747       9.638       9.491       9.332       9.182       9.025       8.838    
        8.681       8.564       8.365       8.068       7.713       7.362       7.045       6.841       6.733       6.609    
        6.433       6.284       6.191       6.067       5.897       5.687       5.504       5.337       5.189       5.051    
        4.882       4.685       4.479       4.291       4.112       3.899       3.656       3.419       3.072       2.721    
        2.491       2.322       2.173       2.047       1.835       1.575       1.335      0.9647      0.4763       0.000    
  41    10.00       9.908       9.821       9.732       9.611       9.476       9.337       9.202       9.051       8.882    
        8.732       8.584       8.302       7.918       7.526       7.209       6.965       6.797       6.683       6.538    
        6.358       6.232       6.123       5.992       5.846       5.700       5.567       5.407       5.229       5.071    
        4.919       4.732       4.525       4.354       4.167       3.959       3.711       3.381       2.997       2.728    
        2.541       2.365       2.228       2.069       1.846       1.588       1.376       1.024      0.5243       0.000    
  42    10.00       9.910       9.814       9.731       9.625       9.499       9.360       9.208       9.072       8.941    
        8.755       8.480       8.124       7.726       7.375       7.135       6.925       6.767       6.632       6.458    
        6.293       6.175       6.062       5.971       5.851       5.745       5.622       5.437       5.247       5.106    
        4.974       4.772       4.550       4.390       4.230       3.997       3.678       3.284       2.943       2.738    
        2.589       2.440       2.271       2.064       1.832       1.625       1.411       1.066      0.5485       0.000    
  43    10.00       9.911       9.822       9.737       9.653       9.540       9.399       9.249       9.099       8.907    
        8.632       8.314       7.950       7.568       7.299       7.099       6.901       6.734       6.569       6.396    
        6.244       6.133       6.053       5.982       5.878       5.764       5.643       5.462       5.293       5.179    
        5.011       4.789       4.581       4.423       4.239       3.954       3.580       3.200       2.963       2.802    
        2.644       2.483       2.276       2.053       1.842       1.641       1.449       1.063      0.4788       0.000    
  44    10.00       9.905       9.824       9.750       9.656       9.570       9.450       9.264       9.059       8.788    
        8.508       8.174       7.777       7.501       7.295       7.073       6.855       6.663       6.484       6.330    
        6.223       6.136       6.062       5.990       5.899       5.784       5.641       5.499       5.369       5.225    
        5.063       4.863       4.628       4.406       4.190       3.898       3.509       3.180       2.991       2.835    
        2.684       2.506       2.299       2.100       1.878       1.656       1.405      0.9100      0.4022       0.000    
  45    10.00       9.905       9.838       9.753       9.664       9.586       9.409       9.196       8.952       8.685    
        8.450       8.050       7.682       7.476       7.264       7.020       6.774       6.577       6.420       6.311    
        6.235       6.160       6.082       5.996       5.899       5.793       5.674       5.554       5.447       5.299    
        5.105       4.891       4.654       4.385       4.140       3.823       3.457       3.199       3.044       2.887    
        2.691       2.486       2.304       2.124       1.931       1.692       1.267      0.7627      0.3863       0.000    
  46    10.00       9.921       9.849       9.759       9.661       9.513       9.326       9.148       8.925       8.664    
        8.326       7.957       7.662       7.405       7.188       6.947       6.701       6.547       6.431       6.331    
        6.261       6.191       6.099       5.995       5.900       5.806       5.709       5.602       5.495       5.359    
        5.178       4.955       4.691       4.387       4.046       3.707       3.441       3.265       3.092       2.912    
        2.686       2.472       2.291       2.146       1.939       1.605       1.136      0.7184      0.3650       0.000    
  47    10.00       9.939       9.872       9.777       9.608       9.428       9.268       9.116       8.916       8.589    
        8.224       7.882       7.598       7.383       7.150       6.882       6.671       6.535       6.442       6.360    
        6.285       6.204       6.112       6.010       5.916       5.835       5.750       5.644       5.521       5.385    
        5.226       5.027       4.686       4.283       3.963       3.714       3.483       3.332       3.173       2.923    
        2.654       2.429       2.261       2.143       1.883       1.485       1.054      0.6912      0.3548       0.000    
  48    10.00       9.946       9.875       9.733       9.561       9.413       9.241       9.088       8.874       8.530    
        8.132       7.822       7.592       7.335       7.064       6.825       6.666       6.533       6.444       6.383    
        6.308       6.210       6.109       6.021       5.946       5.877       5.795       5.678       5.532       5.375    
        5.209       4.982       4.629       4.299       4.020       3.772       3.556       3.385       3.179       2.880    
        2.596       2.415       2.275       2.055       1.707       1.351       1.006      0.6961      0.3745       0.000    
  49    10.00       9.943       9.841       9.714       9.574       9.401       9.229       9.056       8.791       8.427    
        8.084       7.794       7.517       7.273       7.064       6.839       6.634       6.514       6.455       6.396    
        6.325       6.215       6.103       6.030       5.968       5.914       5.822       5.680       5.515       5.364    
        5.191       4.912       4.615       4.394       4.137       3.847       3.585       3.378       3.142       2.823    
        2.593       2.435       2.226       1.894       1.585       1.294      0.9949      0.6960      0.3732       0.000    
  50    10.00       9.935       9.830       9.699       9.573       9.411       9.218       9.002       8.724       8.435    
        8.078       7.715       7.458       7.263       7.087       6.833       6.605       6.516       6.463       6.404    
        6.333       6.219       6.105       6.034       5.982       5.931       5.827       5.665       5.497       5.354    
        5.176       4.890       4.659       4.461       4.192       3.904       3.629       3.347       3.024       2.757    
        2.638       2.459       2.136       1.803       1.573       1.292       1.009      0.6816      0.3039       0.000    

 HEAD WILL BE SAVED ON UNIT   51 AT END OF TIME STEP  24, STRESS PERIOD    2

 DRAWDOWN WILL BE SAVED ON UNIT   52 AT END OF TIME STEP  24, STRESS PERIOD    2
1
  VOLUMETRIC BUDGET FOR ENTIRE MODEL AT END OF TIME STEP 24 IN STRESS PERIOD   2
  ------------------------------------------------------------------------------

     CUMULATIVE VOLUMES      L**3       RATES FOR THIS TIME STEP      L**3/T
     ------------------                 ------------------------

           IN:                                      IN:
           ---                                      ---
             STORAGE =       11982.5000               STORAGE =         496.5258
       CONSTANT HEAD =       14944.0166         CONSTANT HEAD =         600.3884
               WELLS =           0.0000                 WELLS =           0.0000

            TOTAL IN =       26926.5156              TOTAL IN =        1096.9142

          OUT:                                     OUT:
          ----                                     ----
             STORAGE =       9.4320E-03               STORAGE =           0.0000
       CONSTANT HEAD =       14926.5078         CONSTANT HEAD =         596.9141
               WELLS =       12000.0000                 WELLS =         500.0000

           TOTAL OUT =       26926.5176             TOTAL OUT =        1096.9141

            IN - OUT =      -1.9531E-03              IN - OUT =       1.2207E-04

 PERCENT DISCREPANCY =           0.00     PERCENT DISCREPANCY =           0.00






          TIME SUMMARY AT END OF TIME STEP  24 IN STRESS PERIOD    2
                    SECONDS     MINUTES      HOURS       DAYS        YEARS
                    -----------------------------------------------------------
   TIME STEP LENGTH  86400.      1440.0      24.000      1.0000     2.73785E-03
 STRESS PERIOD TIME 2.07360E+06  34560.      576.00      24.000     6.57084E-02
         TOTAL TIME 2.16000E+06  36000.      600.00      25.000     6.84463E-02
1
 
 SOLVING FOR HEAD 

 OUTPUT CONTROL FOR STRESS PERIOD    2   TIME STEP  25
    SAVE HEAD FOR ALL LAYERS
    SAVE DRAWDOWN FOR ALL LAYERS
    SAVE BUDGET
    PRINT HEAD FOR ALL LAYERS
    PRINT BUDGET
 UBDSV1 SAVING "         STORAGE" ON UNIT  53 AT TIME STEP 25, STRESS PERIOD   2
 UBDSV2 SAVING "   CONSTANT HEAD" ON UNIT  53 AT TIME STEP 25, STRESS PERIOD   2
 UBDSV1 SAVING "FLOW RIGHT FACE " ON UNIT  53 AT TIME STEP 25, STRESS PERIOD   2
 UBDSV1 SAVING "FLOW FRONT FACE " ON UNIT  53 AT TIME STEP 25, STRESS PERIOD   2
1
              HEAD IN LAYER   1 AT END OF TIME STEP  25 IN STRESS PERIOD    2
  ---------------------------------------------------------------------------

            1           2           3           4           5           6           7           8           9          10
           11          12          13          14          15          16          17          18          19          20
           21          22          23          24          25          26          27          28          29          30
           31          32          33          34          35          36          37          38          39          40
           41          42          43          44          45          46          47          48          49          50
 ........................................................................................................................
   1    10.00       9.959       9.901       9.835       9.771       9.698       9.628       9.560       9.474       9.390    
        9.325       9.260       9.194       9.131       9.027       8.902       8.762       8.652       8.595       8.528    
        8.449       8.385       8.321       8.247       8.148       7.951       7.729       7.573       7.421       7.277    
        7.089       6.788       6.404       5.978       5.537       5.067       4.603       4.216       3.712       3.164    
        2.714       2.284       1.807       1.407       1.161      0.9520      0.7865      0.6667      0.4475       0.000    
   2    10.00       9.958       9.906       9.839       9.774       9.709       9.641       9.551       9.457       9.388    
        9.331       9.276       9.221       9.142       9.023       8.892       8.761       8.652       8.594       8.519    
        8.439       8.391       8.340       8.262       8.137       7.945       7.744       7.583       7.428       7.288    
        7.078       6.764       6.361       5.876       5.405       4.951       4.549       4.176       3.662       3.133    
        2.681       2.197       1.762       1.448       1.216       1.037      0.8314      0.6489      0.3620       0.000    
   3    10.00       9.953       9.900       9.841       9.784       9.719       9.630       9.536       9.469       9.407    
        9.344       9.294       9.245       9.168       9.047       8.886       8.743       8.655       8.586       8.511    
        8.445       8.395       8.342       8.240       8.104       7.933       7.759       7.632       7.453       7.269    
        7.006       6.634       6.176       5.707       5.288       4.864       4.470       4.069       3.538       3.046    
        2.659       2.212       1.813       1.525       1.294       1.108      0.8651      0.5800      0.2629       0.000    
   4    10.00       9.953       9.901       9.844       9.779       9.703       9.613       9.541       9.483       9.419    
        9.364       9.322       9.267       9.181       9.063       8.891       8.743       8.660       8.583       8.516    
        8.446       8.384       8.317       8.210       8.076       7.924       7.766       7.611       7.453       7.244    
        6.915       6.425       5.941       5.584       5.233       4.794       4.320       3.851       3.426       3.054    
        2.690       2.275       1.899       1.638       1.379       1.141      0.8406      0.5218      0.2499       0.000    
   5    10.00       9.950       9.898       9.833       9.768       9.697       9.616       9.553       9.494       9.434    
        9.386       9.345       9.274       9.173       9.043       8.887       8.761       8.671       8.595       8.505    
        8.422       8.355       8.274       8.169       8.049       7.895       7.738       7.595       7.434       7.183    
        6.714       6.170       5.781       5.501       5.153       4.677       4.187       3.760       3.440       3.103    
        2.745       2.362       1.987       1.745       1.466       1.124      0.7654      0.4654      0.2341       0.000    
   6    10.00       9.942       9.881       9.827       9.768       9.691       9.622       9.569       9.506       9.450    
        9.404       9.355       9.265       9.152       9.039       8.908       8.781       8.677       8.578       8.474    
        8.391       8.313       8.243       8.148       7.996       7.844       7.717       7.572       7.351       6.974    
        6.460       5.968       5.644       5.400       5.086       4.614       4.125       3.761       3.491       3.184    
        2.855       2.516       2.132       1.807       1.437       1.061      0.6762      0.4018      0.2212       0.000    
   7    10.00       9.931       9.872       9.822       9.760       9.696       9.635       9.584       9.526       9.471    
        9.415       9.340       9.243       9.137       9.029       8.927       8.795       8.655       8.540       8.438    
        8.351       8.276       8.215       8.098       7.943       7.814       7.686       7.494       7.146       6.666    
        6.174       5.774       5.551       5.333       4.967       4.527       4.195       3.841       3.542       3.340    
        3.026       2.662       2.211       1.746       1.333      0.9213      0.5828      0.4048      0.2084       0.000    
   8    10.00       9.931       9.877       9.820       9.758       9.702       9.648       9.597       9.544       9.491    
        9.418       9.323       9.227       9.126       9.027       8.913       8.749       8.602       8.509       8.411    
        8.313       8.248       8.160       8.036       7.902       7.767       7.555       7.259       6.826       6.405    
        6.032       5.717       5.510       5.259       4.870       4.504       4.204       3.942       3.707       3.473    
        3.166       2.708       2.153       1.658       1.228      0.8630      0.6172      0.3967      0.1902       0.000    
   9    10.00       9.942       9.876       9.814       9.768       9.721       9.668       9.613       9.555       9.499    
        9.414       9.307       9.203       9.103       8.997       8.863       8.705       8.570       8.469       8.370    
        8.283       8.200       8.081       7.965       7.842       7.679       7.378       6.983       6.577       6.269    
        5.960       5.693       5.464       5.150       4.787       4.478       4.249       4.051       3.841       3.584    
        3.215       2.715       2.149       1.657       1.237      0.8825      0.6230      0.4003      0.2047       0.000    
  10    10.00       9.939       9.871       9.820       9.777       9.732       9.684       9.637       9.570       9.487    
        9.386       9.274       9.175       9.081       8.974       8.810       8.644       8.527       8.434       8.340    
        8.258       8.146       8.014       7.884       7.743       7.514       7.134       6.723       6.372       6.124    
        5.921       5.690       5.416       5.095       4.752       4.486       4.307       4.135       3.907       3.612    
        3.192       2.673       2.155       1.734       1.340      0.9717      0.6427      0.4252      0.2285       0.000    
  11    10.00       9.927       9.871       9.829       9.787       9.749       9.705       9.640       9.549       9.456    
        9.355       9.246       9.155       9.044       8.899       8.743       8.607       8.502       8.417       8.321    
        8.202       8.061       7.887       7.739       7.511       7.195       6.869       6.559       6.258       6.067    
        5.908       5.622       5.318       5.051       4.783       4.573       4.384       4.164       3.884       3.528    
        3.132       2.731       2.233       1.817       1.442       1.075      0.7223      0.4177      0.1751       0.000    
  12    10.00       9.929       9.878       9.833       9.798       9.758       9.707       9.618       9.513       9.425    
        9.331       9.219       9.108       8.977       8.851       8.708       8.577       8.486       8.392       8.264    
        8.074       7.866       7.663       7.459       7.157       6.916       6.721       6.420       6.165       6.010    
        5.828       5.568       5.309       5.058       4.858       4.658       4.417       4.150       3.809       3.451    
        3.116       2.751       2.270       1.861       1.508       1.124      0.7603      0.3941      0.1308       0.000    
  13    10.00       9.943       9.894       9.848       9.805       9.758       9.679       9.576       9.478       9.388    
        9.284       9.175       9.062       8.927       8.788       8.655       8.559       8.449       8.328       8.087    
        7.804       7.584       7.359       7.090       6.854       6.730       6.514       6.248       6.100       5.955    
        5.737       5.504       5.298       5.101       4.926       4.740       4.452       4.090       3.761       3.423    
        3.101       2.724       2.208       1.828       1.523       1.116      0.6994      0.3406      0.1042       0.000    
  14    10.00       9.956       9.914       9.865       9.807       9.730       9.627       9.526       9.438       9.340    
        9.234       9.133       9.006       8.866       8.744       8.628       8.488       8.351       8.120       7.764    
        7.491       7.276       6.979       6.763       6.646       6.531       6.318       6.147       6.009       5.861    
        5.667       5.488       5.335       5.157       4.966       4.777       4.455       4.059       3.719       3.371    
        3.040       2.572       2.081       1.781       1.437       1.070      0.7013      0.3158      8.9919E-02   0.000    
  15    10.00       9.965       9.922       9.867       9.798       9.687       9.563       9.474       9.392       9.296    
        9.214       9.111       8.950       8.793       8.682       8.510       8.336       8.190       7.845       7.454    
        7.203       6.918       6.661       6.572       6.503       6.364       6.181       6.021       5.910       5.791    
        5.635       5.499       5.367       5.208       5.018       4.788       4.414       3.978       3.620       3.301    
        2.947       2.475       2.087       1.712       1.303      0.9793      0.6273      0.2898      9.8042E-02   0.000    
  16    10.00       9.971       9.925       9.858       9.758       9.625       9.515       9.445       9.373       9.277    
        9.179       9.031       8.836       8.685       8.529       8.334       8.215       7.931       7.444       7.096    
        6.869       6.618       6.518       6.461       6.345       6.169       6.024       5.937       5.869       5.763    
        5.628       5.503       5.392       5.234       5.006       4.701       4.279       3.903       3.617       3.278    
        2.867       2.402       1.985       1.579       1.226      0.8682      0.5633      0.2930      0.1046       0.000    
  17    10.00       9.967       9.912       9.823       9.710       9.574       9.477       9.416       9.332       9.232    
        9.061       8.858       8.695       8.543       8.345       8.150       7.910       7.457       7.040       6.815    
        6.631       6.489       6.417       6.298       6.122       5.995       5.946       5.907       5.840       5.729    
        5.610       5.497       5.380       5.227       4.912       4.516       4.189       3.939       3.660       3.251    
        2.731       2.276       1.890       1.509       1.100      0.7248      0.4805      0.2663      0.1109       0.000    
  18    10.00       9.954       9.883       9.781       9.633       9.519       9.451       9.362       9.261       9.115    
        8.902       8.733       8.581       8.353       8.097       7.829       7.489       7.086       6.823       6.646    
        6.504       6.378       6.265       6.106       5.980       5.936       5.912       5.877       5.801       5.694    
        5.589       5.476       5.329       5.096       4.775       4.452       4.191       3.986       3.637       3.137    
        2.636       2.160       1.772       1.414       1.022      0.6690      0.4064      0.2226      0.1039       0.000    
  19    10.00       9.938       9.857       9.708       9.562       9.496       9.412       9.297       9.177       9.012    
        8.823       8.658       8.418       8.095       7.825       7.558       7.188       6.851       6.681       6.564    
        6.413       6.257       6.129       5.993       5.922       5.897       5.869       5.818       5.737       5.647    
        5.548       5.424       5.233       4.991       4.723       4.447       4.220       3.958       3.467       2.976    
        2.580       2.094       1.673       1.325      0.9393      0.6031      0.3658      0.2114      0.1058       0.000    
  20    10.00       9.920       9.796       9.642       9.536       9.461       9.368       9.246       9.104       8.952    
        8.756       8.511       8.187       7.888       7.647       7.324       6.981       6.806       6.661       6.502    
        6.340       6.176       6.021       5.918       5.870       5.830       5.776       5.726       5.651       5.573    
        5.480       5.357       5.165       4.944       4.700       4.461       4.219       3.814       3.299       2.882    
        2.444       1.974       1.601       1.252      0.8934      0.5420      0.3177      0.2132      0.1077       0.000    
  21    10.00       9.874       9.747       9.622       9.511       9.427       9.326       9.172       9.028       8.881    
        8.628       8.320       8.014       7.766       7.505       7.193       6.946       6.792       6.626       6.452    
        6.255       6.070       5.933       5.829       5.751       5.684       5.642       5.599       5.525       5.465    
        5.394       5.269       5.101       4.906       4.685       4.452       4.111       3.701       3.251       2.755    
        2.315       1.874       1.551       1.232      0.7760      0.4573      0.3254      0.2373      0.1140       0.000    
  22    10.00       9.855       9.706       9.585       9.491       9.391       9.245       9.092       8.964       8.772    
        8.505       8.182       7.916       7.709       7.422       7.132       6.923       6.764       6.599       6.390    
        6.164       5.977       5.801       5.644       5.541       5.493       5.462       5.409       5.380       5.343    
        5.285       5.182       5.051       4.867       4.656       4.429       4.071       3.655       3.126       2.637    
        2.256       1.856       1.498       1.025      0.6374      0.4578      0.3440      0.2286      9.0719E-02   0.000    
  23    10.00       9.824       9.679       9.579       9.477       9.329       9.164       9.045       8.884       8.683    
        8.410       8.121       7.916       7.654       7.343       7.090       6.913       6.767       6.582       6.332    
        6.090       5.871       5.639       5.363       5.117       5.073       5.147       5.182       5.222       5.225    
        5.190       5.110       4.992       4.841       4.635       4.394       4.057       3.537       2.979       2.576    
        2.211       1.756       1.244      0.8345      0.6207      0.4692      0.3429      0.2173      0.1012       0.000    
  24    10.00       9.800       9.696       9.581       9.437       9.276       9.146       9.016       8.857       8.625    
        8.373       8.148       7.921       7.606       7.276       7.076       6.929       6.779       6.556       6.304    
        6.064       5.813       5.460       4.825       3.866       4.200       4.645       4.921       5.060       5.107    
        5.102       5.041       4.946       4.790       4.592       4.347       3.928       3.377       2.902       2.473    
        2.031       1.552       1.100      0.7943      0.6164      0.4657      0.3345      0.2533      0.1394       0.000    
  25    10.00       9.826       9.716       9.578       9.428       9.283       9.149       9.026       8.831       8.599    
        8.387       8.170       7.892       7.545       7.289       7.107       6.945       6.769       6.561       6.328    
        6.071       5.822       5.179       3.823      0.7279       3.257       4.214       4.687       4.927       5.024    
        5.033       4.992       4.893       4.711       4.500       4.205       3.772       3.244       2.813       2.349    
        1.839       1.389       1.020      0.7843      0.6403      0.5002      0.3653      0.2691      0.1756       0.000    
  26    10.00       9.852       9.748       9.599       9.444       9.317       9.178       9.022       8.822       8.641    
        8.458       8.169       7.818       7.521       7.335       7.173       6.981       6.753       6.532       6.333    
        6.135       5.864       5.277       4.300       3.268       3.790       4.347       4.689       4.892       4.988    
        4.988       4.943       4.824       4.643       4.440       4.119       3.554       3.070       2.709       2.146    
        1.595       1.223       1.008      0.8500      0.6970      0.5419      0.4016      0.2940      0.1755       0.000    
  27    10.00       9.885       9.759       9.632       9.493       9.346       9.208       9.056       8.877       8.703    
        8.457       8.114       7.809       7.569       7.407       7.224       6.972       6.721       6.543       6.386    
        6.222       5.946       5.510       4.978       4.414       4.444       4.643       4.820       4.942       4.984    
        4.964       4.908       4.791       4.608       4.335       3.838       3.309       2.934       2.385       1.838    
        1.446       1.206       1.050      0.9157      0.7747      0.5959      0.4288      0.3209      0.2156       0.000    
  28    10.00       9.895       9.789       9.668       9.542       9.402       9.259       9.105       8.935       8.734    
        8.430       8.118       7.854       7.624       7.456       7.271       7.057       6.814       6.581       6.427    
        6.282       6.086       5.800       5.411       5.062       4.907       4.921       4.998       5.017       5.007    
        4.955       4.879       4.740       4.488       4.089       3.576       3.136       2.629       2.093       1.734    
        1.452       1.254       1.100      0.9669      0.8219      0.6508      0.4855      0.3647      0.2223       0.000    
  29    10.00       9.900       9.799       9.709       9.587       9.459       9.321       9.166       8.985       8.714    
        8.414       8.140       7.889       7.699       7.506       7.306       7.111       6.917       6.697       6.501    
        6.348       6.185       5.991       5.755       5.442       5.271       5.204       5.169       5.132       5.044    
        4.941       4.799       4.626       4.285       3.821       3.371       2.924       2.420       2.016       1.758    
        1.529       1.311       1.142       1.013      0.8719      0.6965      0.5263      0.3851      0.2244       0.000    
  30    10.00       9.909       9.825       9.745       9.639       9.521       9.398       9.225       8.998       8.720    
        8.411       8.131       7.921       7.732       7.540       7.348       7.185       7.023       6.826       6.619    
        6.439       6.290       6.124       5.955       5.751       5.562       5.477       5.350       5.243       5.081    
        4.887       4.656       4.418       4.064       3.700       3.283       2.827       2.370       2.078       1.843    
        1.583       1.370       1.208       1.053      0.8940      0.7388      0.5604      0.4011      0.2423       0.000    
  31    10.00       9.924       9.852       9.777       9.699       9.606       9.470       9.265       9.001       8.712    
        8.412       8.152       7.952       7.758       7.587       7.409       7.242       7.118       6.928       6.731    
        6.560       6.405       6.258       6.095       5.952       5.802       5.656       5.503       5.309       5.075    
        4.786       4.505       4.265       3.997       3.640       3.212       2.782       2.411       2.177       1.965    
        1.696       1.450       1.260       1.097      0.9392      0.7748      0.5961      0.4282      0.2356       0.000    
  32    10.00       9.936       9.880       9.815       9.739       9.654       9.518       9.283       9.034       8.770    
        8.453       8.183       7.982       7.800       7.626       7.475       7.330       7.174       7.020       6.835    
        6.652       6.485       6.332       6.172       6.046       5.943       5.780       5.575       5.300       4.991    
        4.697       4.443       4.204       3.953       3.616       3.234       2.875       2.552       2.302       2.063    
        1.811       1.555       1.353       1.162      0.9815      0.8330      0.6501      0.4283      0.2126       0.000    
  33    10.00       9.944       9.899       9.846       9.772       9.674       9.500       9.272       9.064       8.817    
        8.508       8.239       8.030       7.830       7.665       7.539       7.411       7.256       7.087       6.910    
        6.722       6.541       6.358       6.208       6.109       6.006       5.805       5.527       5.242       4.963    
        4.688       4.465       4.233       3.926       3.611       3.268       2.962       2.702       2.440       2.179    
        1.945       1.702       1.480       1.280       1.079      0.9034      0.6980      0.4366      0.2056       0.000    
  34    10.00       9.950       9.919       9.873       9.781       9.645       9.476       9.307       9.092       8.823    
        8.548       8.284       8.059       7.856       7.712       7.613       7.477       7.318       7.129       6.959    
        6.781       6.566       6.386       6.251       6.146       5.998       5.755       5.512       5.229       4.924    
        4.695       4.510       4.292       3.992       3.675       3.366       3.084       2.849       2.582       2.319    
        2.096       1.873       1.638       1.433       1.221       1.014      0.7531      0.4836      0.2550       0.000    
  35    10.00       9.958       9.923       9.863       9.749       9.604       9.480       9.336       9.136       8.845    
        8.550       8.302       8.072       7.899       7.781       7.670       7.523       7.344       7.158       6.967    
        6.780       6.582       6.398       6.269       6.152       6.008       5.762       5.474       5.172       4.888    
        4.721       4.539       4.310       4.080       3.813       3.487       3.205       3.016       2.746       2.455    
        2.245       2.022       1.798       1.598       1.360       1.130      0.8674      0.5789      0.2892       0.000    
  36    10.00       9.955       9.905       9.837       9.723       9.585       9.473       9.336       9.134       8.859    
        8.549       8.278       8.106       7.973       7.859       7.719       7.539       7.360       7.154       6.900    
        6.701       6.540       6.385       6.271       6.162       5.987       5.717       5.422       5.116       4.871    
        4.716       4.560       4.352       4.137       3.910       3.614       3.335       3.129       2.893       2.580    
        2.345       2.119       1.892       1.726       1.497       1.242      0.9802      0.6789      0.3452       0.000    
  37    10.00       9.941       9.885       9.811       9.694       9.568       9.441       9.308       9.121       8.822    
        8.506       8.285       8.180       8.052       7.900       7.754       7.541       7.317       7.048       6.787    
        6.647       6.520       6.372       6.250       6.119       5.902       5.652       5.338       5.076       4.903    
        4.751       4.583       4.371       4.185       3.949       3.667       3.448       3.249       2.987       2.675    
        2.395       2.175       1.994       1.809       1.592       1.354       1.104      0.7661      0.4150       0.000    
  38    10.00       9.934       9.860       9.781       9.673       9.548       9.406       9.267       9.066       8.788    
        8.546       8.369       8.235       8.115       7.940       7.706       7.457       7.172       6.877       6.719    
        6.612       6.451       6.302       6.200       6.049       5.827       5.525       5.249       5.105       4.967    
        4.798       4.610       4.409       4.221       3.989       3.733       3.537       3.334       3.023       2.697    
        2.454       2.251       2.067       1.882       1.689       1.461       1.201      0.8764      0.4547       0.000    
  39    10.00       9.915       9.841       9.761       9.654       9.514       9.360       9.212       9.027       8.803    
        8.612       8.480       8.327       8.150       7.877       7.566       7.251       6.944       6.770       6.676    
        6.519       6.343       6.236       6.140       5.994       5.736       5.448       5.279       5.153       5.007    
        4.825       4.647       4.445       4.244       4.048       3.837       3.612       3.375       3.056       2.735    
        2.480       2.276       2.133       1.986       1.777       1.543       1.282      0.9286      0.4547       0.000    
  40    10.00       9.901       9.828       9.747       9.638       9.490       9.332       9.181       9.024       8.837    
        8.679       8.562       8.363       8.066       7.711       7.360       7.043       6.839       6.731       6.606    
        6.430       6.281       6.188       6.065       5.895       5.686       5.503       5.336       5.188       5.050    
        4.882       4.684       4.479       4.291       4.112       3.898       3.655       3.419       3.071       2.721    
        2.491       2.322       2.173       2.047       1.835       1.575       1.335      0.9647      0.4763       0.000    
  41    10.00       9.908       9.821       9.732       9.611       9.476       9.337       9.201       9.050       8.881    
        8.731       8.582       8.301       7.916       7.524       7.208       6.964       6.795       6.681       6.536    
        6.356       6.231       6.122       5.990       5.845       5.699       5.566       5.407       5.229       5.070    
        4.918       4.731       4.525       4.354       4.167       3.959       3.711       3.381       2.996       2.728    
        2.541       2.365       2.228       2.069       1.846       1.588       1.376       1.024      0.5243       0.000    
  42    10.00       9.910       9.814       9.731       9.625       9.499       9.359       9.208       9.071       8.940    
        8.754       8.479       8.123       7.726       7.374       7.134       6.924       6.766       6.630       6.456    
        6.291       6.174       6.061       5.970       5.850       5.744       5.621       5.437       5.247       5.106    
        4.973       4.771       4.550       4.390       4.230       3.997       3.678       3.283       2.943       2.738    
        2.589       2.440       2.271       2.064       1.832       1.625       1.411       1.066      0.5485       0.000    
  43    10.00       9.911       9.822       9.737       9.652       9.540       9.399       9.249       9.098       8.906    
        8.631       8.313       7.949       7.568       7.299       7.098       6.900       6.733       6.568       6.395    
        6.243       6.132       6.052       5.982       5.877       5.764       5.642       5.462       5.292       5.178    
        5.010       4.788       4.581       4.423       4.239       3.954       3.580       3.200       2.963       2.802    
        2.644       2.483       2.276       2.053       1.841       1.641       1.449       1.063      0.4788       0.000    
  44    10.00       9.905       9.824       9.750       9.656       9.570       9.449       9.264       9.058       8.787    
        8.508       8.174       7.777       7.501       7.294       7.072       6.855       6.663       6.483       6.330    
        6.222       6.136       6.062       5.989       5.899       5.783       5.641       5.499       5.368       5.224    
        5.063       4.862       4.628       4.405       4.190       3.898       3.509       3.180       2.991       2.835    
        2.684       2.506       2.298       2.100       1.878       1.656       1.405      0.9100      0.4022       0.000    
  45    10.00       9.905       9.838       9.752       9.664       9.586       9.409       9.196       8.952       8.685    
        8.450       8.049       7.682       7.476       7.264       7.020       6.773       6.576       6.420       6.311    
        6.235       6.160       6.082       5.995       5.898       5.792       5.673       5.553       5.446       5.298    
        5.105       4.891       4.653       4.384       4.140       3.823       3.457       3.199       3.044       2.887    
        2.691       2.486       2.304       2.124       1.931       1.692       1.267      0.7627      0.3863       0.000    
  46    10.00       9.921       9.849       9.759       9.661       9.513       9.325       9.148       8.925       8.664    
        8.325       7.957       7.662       7.405       7.188       6.946       6.700       6.547       6.430       6.331    
        6.261       6.191       6.098       5.995       5.900       5.805       5.708       5.602       5.495       5.358    
        5.178       4.955       4.691       4.387       4.046       3.707       3.441       3.265       3.092       2.912    
        2.686       2.472       2.291       2.146       1.939       1.605       1.136      0.7184      0.3650       0.000    
  47    10.00       9.939       9.872       9.777       9.608       9.428       9.268       9.116       8.916       8.589    
        8.224       7.882       7.598       7.382       7.149       6.882       6.671       6.534       6.442       6.360    
        6.285       6.203       6.112       6.010       5.916       5.835       5.749       5.644       5.520       5.385    
        5.225       5.026       4.686       4.283       3.963       3.714       3.483       3.332       3.173       2.923    
        2.654       2.429       2.261       2.143       1.883       1.485       1.054      0.6912      0.3548       0.000    
  48    10.00       9.946       9.875       9.733       9.561       9.413       9.241       9.088       8.874       8.530    
        8.132       7.822       7.592       7.335       7.064       6.825       6.665       6.533       6.444       6.383    
        6.307       6.210       6.109       6.020       5.945       5.877       5.795       5.678       5.532       5.374    
        5.209       4.981       4.629       4.299       4.020       3.772       3.556       3.385       3.179       2.880    
        2.596       2.415       2.275       2.055       1.707       1.351       1.006      0.6961      0.3745       0.000    
  49    10.00       9.943       9.841       9.714       9.574       9.401       9.228       9.056       8.791       8.427    
        8.084       7.794       7.517       7.273       7.064       6.839       6.634       6.514       6.455       6.396    
        6.325       6.214       6.103       6.030       5.968       5.914       5.822       5.680       5.514       5.364    
        5.191       4.912       4.615       4.394       4.137       3.847       3.585       3.378       3.142       2.823    
        2.593       2.435       2.226       1.894       1.585       1.294      0.9949      0.6960      0.3732       0.000    
  50    10.00       9.935       9.830       9.699       9.573       9.411       9.218       9.002       8.724       8.435    
        8.078       7.715       7.458       7.263       7.087       6.833       6.605       6.516       6.463       6.404    
        6.333       6.219       6.105       6.034       5.981       5.931       5.827       5.665       5.497       5.353    
        5.176       4.889       4.659       4.461       4.192       3.904       3.629       3.347       3.024       2.757    
        2.638       2.459       2.136       1.803       1.573       1.292       1.009      0.6816      0.3039       0.000    

 HEAD WILL BE SAVED ON UNIT   51 AT END OF TIME STEP  25, STRESS PERIOD    2

 DRAWDOWN WILL BE SAVED ON UNIT   52 AT END OF TIME STEP  25, STRESS PERIOD    2
1
  VOLUMETRIC BUDGET FOR ENTIRE MODEL AT END OF TIME STEP 25 IN STRESS PERIOD   2
  ------------------------------------------------------------------------------

     CUMULATIVE VOLUMES      L**3       RATES FOR THIS TIME STEP      L**3/T
     ------------------                 ------------------------

           IN:                                      IN:
           ---                                      ---
             STORAGE =       12478.4238               STORAGE =         495.9241
       CONSTANT HEAD =       15544.9629         CONSTANT HEAD =         600.9468
               WELLS =           0.0000                 WELLS =           0.0000

            TOTAL IN =       28023.3867              TOTAL IN =        1096.8708

          OUT:                                     OUT:
          ----                                     ----
             STORAGE =       9.4320E-03               STORAGE =           0.0000
       CONSTANT HEAD =       15523.3789         CONSTANT HEAD =         596.8707
               WELLS =       12500.0000                 WELLS =         500.0000

           TOTAL OUT =       28023.3887             TOTAL OUT =        1096.8707

            IN - OUT =      -1.9531E-03              IN - OUT =       1.2207E-04

 PERCENT DISCREPANCY =           0.00     PERCENT DISCREPANCY =           0.00






          TIME SUMMARY AT END OF TIME STEP  25 IN STRESS PERIOD    2
                    SECONDS     MINUTES      HOURS       DAYS        YEARS
                    -----------------------------------------------------------
   TIME STEP LENGTH  86400.      1440.0      24.000      1.0000     2.73785E-03
 STRESS PERIOD TIME 2.16000E+06  36000.      600.00      25.000     6.84463E-02
         TOTAL TIME 2.24640E+06  37440.      624.00      26.000     7.11841E-02
1
 
 SOLVING FOR HEAD 

 OUTPUT CONTROL FOR STRESS PERIOD    2   TIME STEP  26
    SAVE HEAD FOR ALL LAYERS
    SAVE DRAWDOWN FOR ALL LAYERS
    SAVE BUDGET
    PRINT HEAD FOR ALL LAYERS
    PRINT BUDGET
 UBDSV1 SAVING "         STORAGE" ON UNIT  53 AT TIME STEP 26, STRESS PERIOD   2
 UBDSV2 SAVING "   CONSTANT HEAD" ON UNIT  53 AT TIME STEP 26, STRESS PERIOD   2
 UBDSV1 SAVING "FLOW RIGHT FACE " ON UNIT  53 AT TIME STEP 26, STRESS PERIOD   2
 UBDSV1 SAVING "FLOW FRONT FACE " ON UNIT  53 AT TIME STEP 26, STRESS PERIOD   2
1
              HEAD IN LAYER   1 AT END OF TIME STEP  26 IN STRESS PERIOD    2
  ---------------------------------------------------------------------------

            1           2           3           4           5           6           7           8           9          10
           11          12          13          14          15          16          17          18          19          20
           21          22          23          24          25          26          27          28          29          30
           31          32          33          34          35          36          37          38          39          40
           41          42          43          44          45          46          47          48          49          50
 ........................................................................................................................
   1    10.00       9.959       9.901       9.835       9.771       9.697       9.628       9.560       9.474       9.389    
        9.324       9.260       9.194       9.130       9.025       8.900       8.761       8.651       8.594       8.527    
        8.447       8.383       8.319       8.245       8.146       7.950       7.728       7.572       7.419       7.275    
        7.088       6.787       6.403       5.977       5.536       5.067       4.603       4.216       3.712       3.163    
        2.714       2.284       1.807       1.407       1.161      0.9519      0.7864      0.6666      0.4474       0.000    
   2    10.00       9.958       9.906       9.839       9.774       9.709       9.640       9.550       9.456       9.387    
        9.330       9.275       9.220       9.141       9.022       8.891       8.759       8.650       8.592       8.517    
        8.437       8.389       8.338       8.260       8.135       7.943       7.742       7.581       7.427       7.286    
        7.077       6.763       6.360       5.876       5.405       4.951       4.549       4.175       3.662       3.132    
        2.681       2.197       1.762       1.448       1.216       1.036      0.8313      0.6489      0.3619       0.000    
   3    10.00       9.953       9.900       9.841       9.784       9.718       9.630       9.535       9.469       9.406    
        9.343       9.293       9.244       9.168       9.046       8.884       8.741       8.653       8.584       8.509    
        8.443       8.393       8.340       8.238       8.102       7.932       7.757       7.631       7.451       7.267    
        7.005       6.633       6.175       5.706       5.287       4.863       4.469       4.069       3.537       3.046    
        2.658       2.212       1.813       1.525       1.294       1.108      0.8650      0.5799      0.2629       0.000    
   4    10.00       9.953       9.901       9.844       9.779       9.703       9.612       9.540       9.482       9.418    
        9.363       9.321       9.267       9.180       9.062       8.890       8.741       8.658       8.582       8.514    
        8.444       8.382       8.315       8.208       8.074       7.922       7.764       7.609       7.451       7.242    
        6.913       6.424       5.939       5.583       5.232       4.793       4.319       3.850       3.425       3.053    
        2.690       2.275       1.898       1.638       1.378       1.141      0.8405      0.5217      0.2499       0.000    
   5    10.00       9.949       9.898       9.833       9.767       9.697       9.615       9.553       9.493       9.434    
        9.385       9.344       9.273       9.172       9.042       8.886       8.759       8.669       8.593       8.503    
        8.420       8.352       8.272       8.167       8.047       7.892       7.735       7.593       7.432       7.181    
        6.712       6.168       5.779       5.499       5.152       4.676       4.186       3.759       3.439       3.102    
        2.744       2.361       1.987       1.745       1.466       1.124      0.7653      0.4654      0.2340       0.000    
   6    10.00       9.942       9.881       9.827       9.767       9.691       9.622       9.568       9.506       9.449    
        9.403       9.354       9.265       9.151       9.037       8.907       8.779       8.676       8.576       8.472    
        8.388       8.310       8.240       8.145       7.993       7.841       7.714       7.569       7.348       6.971    
        6.457       5.965       5.641       5.398       5.084       4.612       4.123       3.760       3.489       3.183    
        2.854       2.515       2.132       1.806       1.437       1.060      0.6761      0.4017      0.2211       0.000    
   7    10.00       9.931       9.872       9.821       9.760       9.696       9.634       9.584       9.526       9.470    
        9.415       9.340       9.242       9.135       9.028       8.925       8.793       8.652       8.538       8.436    
        8.348       8.273       8.212       8.095       7.940       7.811       7.683       7.491       7.142       6.663    
        6.171       5.771       5.548       5.329       4.965       4.524       4.193       3.839       3.541       3.339    
        3.025       2.661       2.210       1.746       1.333      0.9212      0.5827      0.4048      0.2084       0.000    
   8    10.00       9.931       9.877       9.820       9.758       9.701       9.648       9.596       9.543       9.490    
        9.417       9.322       9.226       9.125       9.025       8.911       8.746       8.599       8.506       8.408    
        8.310       8.245       8.156       8.033       7.898       7.763       7.551       7.255       6.821       6.401    
        6.028       5.713       5.506       5.255       4.867       4.501       4.202       3.939       3.705       3.471    
        3.165       2.707       2.153       1.658       1.227      0.8629      0.6172      0.3967      0.1901       0.000    
   9    10.00       9.942       9.876       9.814       9.768       9.721       9.667       9.613       9.554       9.498    
        9.414       9.306       9.202       9.101       8.996       8.861       8.703       8.567       8.466       8.366    
        8.280       8.196       8.077       7.960       7.837       7.674       7.373       6.977       6.571       6.263    
        5.954       5.688       5.460       5.145       4.783       4.474       4.246       4.049       3.839       3.582    
        3.214       2.714       2.149       1.656       1.237      0.8824      0.6229      0.4003      0.2046       0.000    
  10    10.00       9.939       9.871       9.820       9.777       9.732       9.683       9.637       9.569       9.486    
        9.385       9.273       9.173       9.079       8.972       8.808       8.641       8.524       8.430       8.336    
        8.254       8.141       8.009       7.879       7.737       7.508       7.127       6.716       6.364       6.116    
        5.914       5.683       5.410       5.089       4.747       4.482       4.304       4.132       3.905       3.610    
        3.190       2.672       2.155       1.733       1.340      0.9716      0.6426      0.4252      0.2285       0.000    
  11    10.00       9.927       9.871       9.829       9.787       9.748       9.704       9.639       9.548       9.455    
        9.354       9.245       9.154       9.042       8.896       8.740       8.603       8.499       8.413       8.317    
        8.198       8.055       7.881       7.732       7.503       7.186       6.860       6.550       6.249       6.058    
        5.900       5.614       5.311       5.045       4.778       4.568       4.380       4.161       3.881       3.526    
        3.131       2.729       2.232       1.816       1.441       1.075      0.7222      0.4176      0.1751       0.000    
  12    10.00       9.929       9.878       9.833       9.798       9.758       9.707       9.617       9.512       9.424    
        9.330       9.217       9.106       8.975       8.848       8.705       8.573       8.482       8.388       8.259    
        8.068       7.859       7.655       7.449       7.146       6.904       6.709       6.409       6.154       5.999    
        5.818       5.559       5.301       5.051       4.852       4.652       4.412       4.146       3.806       3.449    
        3.114       2.750       2.270       1.861       1.508       1.124      0.7602      0.3941      0.1307       0.000    
  13    10.00       9.943       9.894       9.847       9.805       9.758       9.678       9.576       9.477       9.387    
        9.283       9.174       9.060       8.924       8.785       8.651       8.554       8.444       8.323       8.079    
        7.795       7.574       7.348       7.077       6.840       6.716       6.500       6.235       6.087       5.943    
        5.726       5.494       5.288       5.093       4.919       4.734       4.447       4.086       3.758       3.420    
        3.099       2.723       2.207       1.827       1.523       1.115      0.6993      0.3406      0.1042       0.000    
  14    10.00       9.956       9.914       9.865       9.807       9.729       9.627       9.525       9.437       9.339    
        9.232       9.130       9.003       8.862       8.740       8.623       8.483       8.344       8.113       7.754    
        7.479       7.262       6.964       6.747       6.629       6.515       6.302       6.131       5.993       5.846    
        5.654       5.475       5.324       5.147       4.958       4.770       4.449       4.055       3.716       3.368    
        3.038       2.571       2.080       1.781       1.436       1.070      0.7012      0.3157      8.9908E-02   0.000    
  15    10.00       9.965       9.922       9.867       9.798       9.686       9.562       9.473       9.391       9.295    
        9.212       9.108       8.947       8.789       8.677       8.504       8.329       8.182       7.834       7.439    
        7.187       6.900       6.642       6.554       6.485       6.346       6.163       6.003       5.892       5.774    
        5.620       5.485       5.354       5.197       5.008       4.780       4.408       3.974       3.617       3.299    
        2.945       2.473       2.086       1.712       1.302      0.9792      0.6272      0.2898      9.8028E-02   0.000    
  16    10.00       9.971       9.925       9.858       9.757       9.625       9.515       9.444       9.372       9.276    
        9.177       9.028       8.832       8.679       8.523       8.326       8.207       7.920       7.428       7.078    
        6.850       6.598       6.498       6.441       6.325       6.149       6.004       5.917       5.851       5.746    
        5.613       5.488       5.378       5.222       4.996       4.693       4.272       3.898       3.613       3.275    
        2.865       2.400       1.984       1.578       1.226      0.8680      0.5631      0.2929      0.1046       0.000    
  17    10.00       9.967       9.912       9.823       9.709       9.573       9.476       9.415       9.330       9.230    
        9.058       8.853       8.689       8.536       8.337       8.140       7.897       7.440       7.020       6.794    
        6.610       6.468       6.396       6.277       6.100       5.973       5.925       5.887       5.820       5.710    
        5.593       5.481       5.366       5.214       4.901       4.508       4.182       3.933       3.656       3.248    
        2.729       2.275       1.889       1.509       1.100      0.7246      0.4804      0.2663      0.1109       0.000    
  18    10.00       9.954       9.883       9.780       9.632       9.518       9.450       9.360       9.260       9.113    
        8.897       8.728       8.574       8.345       8.086       7.815       7.472       7.066       6.802       6.624    
        6.481       6.356       6.242       6.083       5.958       5.913       5.889       5.856       5.780       5.675    
        5.572       5.459       5.314       5.083       4.764       4.443       4.183       3.979       3.632       3.134    
        2.634       2.159       1.771       1.414       1.022      0.6688      0.4063      0.2226      0.1039       0.000    
  19    10.00       9.938       9.857       9.708       9.562       9.495       9.411       9.296       9.174       9.009    
        8.818       8.651       8.410       8.084       7.811       7.542       7.168       6.830       6.658       6.541    
        6.390       6.233       6.106       5.970       5.899       5.874       5.846       5.796       5.715       5.626    
        5.529       5.406       5.217       4.977       4.712       4.438       4.212       3.951       3.463       2.973    
        2.578       2.093       1.672       1.324      0.9390      0.6030      0.3657      0.2113      0.1058       0.000    
  20    10.00       9.920       9.796       9.642       9.535       9.460       9.367       9.244       9.101       8.948    
        8.750       8.503       8.176       7.875       7.631       7.305       6.960       6.784       6.638       6.478    
        6.316       6.152       5.997       5.894       5.846       5.806       5.753       5.703       5.629       5.551    
        5.459       5.338       5.148       4.930       4.688       4.451       4.210       3.808       3.295       2.879    
        2.443       1.973       1.600       1.252      0.8932      0.5419      0.3176      0.2132      0.1077       0.000    
  21    10.00       9.873       9.746       9.621       9.510       9.426       9.324       9.170       9.024       8.877    
        8.622       8.310       8.002       7.751       7.488       7.173       6.924       6.769       6.603       6.428    
        6.231       6.045       5.908       5.804       5.726       5.659       5.617       5.574       5.501       5.441    
        5.372       5.249       5.083       4.890       4.672       4.441       4.103       3.695       3.247       2.753    
        2.313       1.873       1.551       1.231      0.7758      0.4572      0.3253      0.2373      0.1140       0.000    
  22    10.00       9.855       9.706       9.585       9.491       9.390       9.243       9.090       8.961       8.766    
        8.497       8.171       7.902       7.693       7.404       7.112       6.901       6.741       6.576       6.366    
        6.139       5.952       5.775       5.618       5.515       5.467       5.436       5.383       5.355       5.319    
        5.261       5.160       5.032       4.851       4.642       4.418       4.062       3.649       3.122       2.635    
        2.255       1.855       1.498       1.024      0.6373      0.4577      0.3439      0.2286      9.0703E-02   0.000    
  23    10.00       9.823       9.678       9.578       9.476       9.327       9.162       9.042       8.879       8.677    
        8.401       8.110       7.902       7.638       7.325       7.070       6.891       6.745       6.558       6.308    
        6.065       5.845       5.613       5.336       5.090       5.046       5.120       5.155       5.195       5.200    
        5.166       5.088       4.972       4.823       4.621       4.382       4.048       3.531       2.976       2.573    
        2.209       1.755       1.243      0.8343      0.6205      0.4691      0.3428      0.2173      0.1012       0.000    
  24    10.00       9.800       9.695       9.580       9.436       9.274       9.143       9.012       8.852       8.618    
        8.364       8.137       7.908       7.589       7.257       7.055       6.908       6.757       6.532       6.279    
        6.039       5.787       5.433       4.797       3.838       4.172       4.617       4.893       5.033       5.081    
        5.077       5.018       4.926       4.772       4.577       4.335       3.919       3.372       2.899       2.472    
        2.030       1.551       1.099      0.7942      0.6163      0.4656      0.3344      0.2533      0.1394       0.000    
  25    10.00       9.826       9.716       9.577       9.426       9.280       9.146       9.022       8.826       8.592    
        8.378       8.159       7.879       7.528       7.271       7.087       6.924       6.746       6.537       6.304    
        6.045       5.796       5.152       3.794      0.6963       3.227       4.184       4.658       4.899       4.997    
        5.008       4.968       4.873       4.693       4.485       4.193       3.764       3.239       2.810       2.348    
        1.838       1.388       1.020      0.7842      0.6401      0.5001      0.3652      0.2691      0.1756       0.000    
  26    10.00       9.851       9.747       9.599       9.443       9.315       9.176       9.018       8.817       8.634    
        8.450       8.159       7.804       7.505       7.317       7.154       6.960       6.730       6.509       6.309    
        6.110       5.838       5.250       4.271       3.237       3.759       4.316       4.660       4.863       4.961    
        4.963       4.920       4.803       4.626       4.425       4.108       3.547       3.065       2.706       2.144    
        1.594       1.223       1.008      0.8498      0.6969      0.5418      0.4015      0.2940      0.1755       0.000    
  27    10.00       9.884       9.758       9.631       9.492       9.344       9.205       9.052       8.872       8.697    
        8.449       8.103       7.796       7.553       7.389       7.205       6.952       6.699       6.520       6.362    
        6.198       5.920       5.483       4.949       4.384       4.414       4.612       4.790       4.913       4.957    
        4.939       4.885       4.771       4.591       4.322       3.829       3.304       2.930       2.383       1.837    
        1.446       1.205       1.049      0.9156      0.7746      0.5958      0.4287      0.3208      0.2156       0.000    
  28    10.00       9.895       9.788       9.667       9.541       9.400       9.256       9.102       8.931       8.728    
        8.422       8.108       7.841       7.609       7.440       7.253       7.037       6.792       6.558       6.403    
        6.258       6.061       5.774       5.383       5.033       4.877       4.891       4.968       4.989       4.981    
        4.931       4.857       4.721       4.473       4.078       3.569       3.132       2.627       2.092       1.733    
        1.451       1.254       1.099      0.9667      0.8218      0.6507      0.4854      0.3647      0.2223       0.000    
  29    10.00       9.900       9.799       9.708       9.586       9.457       9.318       9.163       8.981       8.708    
        8.406       8.130       7.877       7.685       7.490       7.289       7.092       6.897       6.675       6.478    
        6.325       6.160       5.965       5.729       5.414       5.242       5.175       5.140       5.104       5.019    
        4.918       4.779       4.610       4.273       3.813       3.366       2.920       2.418       2.015       1.757    
        1.528       1.311       1.142       1.013      0.8717      0.6964      0.5262      0.3851      0.2244       0.000    
  30    10.00       9.909       9.825       9.745       9.638       9.519       9.396       9.222       8.994       8.715    
        8.403       8.122       7.910       7.719       7.526       7.332       7.168       7.004       6.806       6.597    
        6.416       6.267       6.099       5.929       5.725       5.535       5.451       5.324       5.218       5.058    
        4.867       4.641       4.406       4.056       3.694       3.279       2.825       2.369       2.077       1.842    
        1.582       1.370       1.208       1.053      0.8939      0.7387      0.5603      0.4011      0.2423       0.000    
  31    10.00       9.924       9.851       9.776       9.699       9.605       9.468       9.263       8.997       8.706    
        8.405       8.143       7.941       7.746       7.574       7.394       7.226       7.101       6.910       6.711    
        6.539       6.383       6.235       6.072       5.929       5.779       5.632       5.480       5.287       5.057    
        4.771       4.494       4.256       3.990       3.635       3.209       2.780       2.409       2.176       1.965    
        1.695       1.450       1.260       1.097      0.9390      0.7747      0.5960      0.4282      0.2356       0.000    
  32    10.00       9.936       9.880       9.814       9.738       9.653       9.517       9.281       9.031       8.766    
        8.447       8.175       7.973       7.789       7.614       7.462       7.315       7.158       7.003       6.816    
        6.632       6.464       6.312       6.151       6.025       5.921       5.759       5.555       5.283       4.977    
        4.687       4.434       4.197       3.948       3.612       3.231       2.873       2.550       2.301       2.062    
        1.811       1.555       1.353       1.162      0.9814      0.8329      0.6501      0.4282      0.2126       0.000    
  33    10.00       9.944       9.899       9.845       9.772       9.674       9.499       9.270       9.061       8.813    
        8.502       8.232       8.022       7.820       7.655       7.527       7.398       7.242       7.072       6.894    
        6.704       6.522       6.339       6.189       6.090       5.986       5.787       5.512       5.230       4.953    
        4.680       4.459       4.227       3.921       3.607       3.266       2.961       2.701       2.440       2.178    
        1.944       1.702       1.480       1.280       1.079      0.9033      0.6979      0.4366      0.2056       0.000    
  34    10.00       9.950       9.919       9.872       9.780       9.644       9.474       9.306       9.090       8.820    
        8.543       8.278       8.051       7.847       7.702       7.603       7.465       7.306       7.116       6.945    
        6.766       6.550       6.370       6.234       6.129       5.982       5.741       5.500       5.219       4.916    
        4.689       4.504       4.288       3.988       3.673       3.364       3.083       2.849       2.581       2.319    
        2.096       1.873       1.638       1.433       1.221       1.014      0.7531      0.4836      0.2550       0.000    
  35    10.00       9.958       9.923       9.863       9.748       9.603       9.479       9.334       9.134       8.842    
        8.546       8.297       8.066       7.892       7.772       7.661       7.513       7.333       7.146       6.954    
        6.767       6.570       6.385       6.255       6.139       5.995       5.751       5.464       5.165       4.883    
        4.716       4.535       4.307       4.078       3.811       3.486       3.204       3.015       2.746       2.454    
        2.245       2.022       1.798       1.598       1.360       1.130      0.8674      0.5788      0.2892       0.000    
  36    10.00       9.955       9.905       9.837       9.722       9.584       9.472       9.335       9.132       8.856    
        8.545       8.273       8.100       7.967       7.852       7.711       7.530       7.351       7.144       6.890    
        6.691       6.530       6.374       6.261       6.151       5.977       5.709       5.416       5.112       4.867    
        4.713       4.557       4.350       4.136       3.908       3.613       3.334       3.129       2.893       2.580    
        2.345       2.119       1.892       1.726       1.497       1.242      0.9802      0.6789      0.3452       0.000    
  37    10.00       9.941       9.884       9.810       9.694       9.567       9.440       9.307       9.119       8.820    
        8.503       8.281       8.175       8.046       7.893       7.747       7.534       7.310       7.041       6.779    
        6.640       6.512       6.364       6.242       6.110       5.895       5.647       5.334       5.074       4.900    
        4.748       4.581       4.369       4.184       3.948       3.667       3.447       3.249       2.987       2.675    
        2.394       2.175       1.994       1.809       1.592       1.354       1.104      0.7661      0.4150       0.000    
  38    10.00       9.934       9.860       9.781       9.673       9.548       9.406       9.266       9.064       8.786    
        8.543       8.366       8.231       8.111       7.935       7.700       7.451       7.167       6.872       6.713    
        6.606       6.445       6.296       6.194       6.044       5.822       5.522       5.247       5.103       4.965    
        4.796       4.609       4.408       4.220       3.988       3.732       3.537       3.334       3.023       2.697    
        2.454       2.251       2.067       1.882       1.689       1.461       1.201      0.8764      0.4547       0.000    
  39    10.00       9.915       9.841       9.761       9.654       9.513       9.359       9.211       9.026       8.801    
        8.610       8.477       8.324       8.146       7.874       7.562       7.247       6.940       6.767       6.672    
        6.515       6.339       6.232       6.136       5.990       5.734       5.446       5.277       5.151       5.006    
        4.824       4.646       4.444       4.243       4.048       3.837       3.611       3.375       3.056       2.735    
        2.479       2.276       2.133       1.986       1.777       1.543       1.282      0.9286      0.4547       0.000    
  40    10.00       9.901       9.827       9.747       9.638       9.490       9.331       9.180       9.023       8.835    
        8.677       8.560       8.360       8.063       7.709       7.358       7.040       6.837       6.728       6.603    
        6.428       6.278       6.186       6.062       5.893       5.684       5.502       5.335       5.186       5.049    
        4.881       4.684       4.478       4.290       4.111       3.898       3.655       3.418       3.071       2.721    
        2.491       2.322       2.173       2.047       1.835       1.575       1.335      0.9647      0.4763       0.000    
  41    10.00       9.908       9.821       9.732       9.611       9.476       9.336       9.201       9.049       8.880    
        8.729       8.581       8.299       7.915       7.523       7.207       6.962       6.793       6.679       6.534    
        6.354       6.229       6.120       5.989       5.843       5.698       5.565       5.406       5.228       5.069    
        4.917       4.730       4.524       4.353       4.166       3.958       3.711       3.381       2.996       2.728    
        2.541       2.365       2.228       2.069       1.846       1.588       1.376       1.024      0.5243       0.000    
  42    10.00       9.910       9.814       9.731       9.625       9.499       9.359       9.207       9.071       8.939    
        8.753       8.478       8.122       7.725       7.374       7.133       6.923       6.765       6.629       6.455    
        6.290       6.172       6.060       5.969       5.849       5.744       5.620       5.436       5.246       5.105    
        4.973       4.771       4.549       4.389       4.229       3.996       3.678       3.283       2.942       2.738    
        2.589       2.440       2.271       2.064       1.832       1.625       1.411       1.066      0.5485       0.000    
  43    10.00       9.911       9.822       9.737       9.652       9.539       9.399       9.248       9.098       8.905    
        8.630       8.312       7.949       7.567       7.298       7.097       6.899       6.732       6.567       6.394    
        6.242       6.132       6.051       5.981       5.877       5.763       5.642       5.461       5.292       5.178    
        5.010       4.788       4.581       4.423       4.239       3.953       3.580       3.199       2.963       2.802    
        2.644       2.483       2.276       2.053       1.841       1.641       1.449       1.063      0.4788       0.000    
  44    10.00       9.905       9.824       9.750       9.656       9.569       9.449       9.263       9.058       8.787    
        8.508       8.174       7.776       7.500       7.294       7.071       6.854       6.662       6.483       6.329    
        6.221       6.135       6.061       5.989       5.898       5.783       5.640       5.498       5.368       5.224    
        5.063       4.862       4.628       4.405       4.189       3.898       3.508       3.180       2.991       2.835    
        2.684       2.506       2.298       2.100       1.878       1.656       1.405      0.9100      0.4021       0.000    
  45    10.00       9.905       9.838       9.752       9.664       9.586       9.409       9.195       8.952       8.685    
        8.450       8.049       7.681       7.476       7.263       7.019       6.773       6.576       6.419       6.310    
        6.234       6.159       6.081       5.995       5.898       5.792       5.673       5.553       5.446       5.298    
        5.104       4.890       4.653       4.384       4.139       3.823       3.457       3.199       3.044       2.887    
        2.691       2.486       2.304       2.124       1.931       1.692       1.267      0.7627      0.3863       0.000    
  46    10.00       9.921       9.849       9.759       9.661       9.513       9.325       9.148       8.925       8.664    
        8.325       7.957       7.662       7.405       7.187       6.946       6.700       6.547       6.430       6.330    
        6.260       6.190       6.098       5.994       5.899       5.805       5.708       5.601       5.494       5.358    
        5.178       4.954       4.691       4.387       4.046       3.707       3.440       3.264       3.092       2.912    
        2.686       2.472       2.291       2.146       1.939       1.605       1.136      0.7184      0.3650       0.000    
  47    10.00       9.939       9.872       9.777       9.608       9.428       9.268       9.115       8.916       8.589    
        8.224       7.882       7.598       7.382       7.149       6.882       6.670       6.534       6.442       6.360    
        6.284       6.203       6.111       6.010       5.915       5.834       5.749       5.643       5.520       5.385    
        5.225       5.026       4.686       4.283       3.963       3.714       3.483       3.332       3.173       2.923    
        2.654       2.429       2.261       2.143       1.883       1.485       1.054      0.6912      0.3548       0.000    
  48    10.00       9.946       9.875       9.732       9.561       9.412       9.241       9.088       8.874       8.530    
        8.132       7.822       7.592       7.334       7.064       6.824       6.665       6.532       6.443       6.383    
        6.307       6.209       6.108       6.020       5.945       5.876       5.795       5.678       5.531       5.374    
        5.209       4.981       4.629       4.299       4.020       3.772       3.555       3.385       3.179       2.880    
        2.596       2.415       2.275       2.055       1.707       1.351       1.006      0.6961      0.3745       0.000    
  49    10.00       9.943       9.841       9.714       9.574       9.401       9.228       9.056       8.791       8.426    
        8.084       7.794       7.516       7.272       7.064       6.839       6.633       6.513       6.454       6.396    
        6.325       6.214       6.102       6.029       5.967       5.913       5.821       5.680       5.514       5.363    
        5.190       4.912       4.615       4.394       4.137       3.847       3.585       3.378       3.142       2.823    
        2.593       2.435       2.226       1.894       1.585       1.294      0.9949      0.6960      0.3732       0.000    
  50    10.00       9.935       9.830       9.699       9.573       9.411       9.218       9.002       8.723       8.435    
        8.077       7.715       7.457       7.262       7.086       6.832       6.605       6.515       6.463       6.403    
        6.332       6.218       6.104       6.033       5.981       5.931       5.826       5.664       5.496       5.353    
        5.176       4.889       4.659       4.460       4.192       3.903       3.629       3.347       3.024       2.757    
        2.638       2.459       2.136       1.803       1.573       1.292       1.009      0.6816      0.3039       0.000    

 HEAD WILL BE SAVED ON UNIT   51 AT END OF TIME STEP  26, STRESS PERIOD    2

 DRAWDOWN WILL BE SAVED ON UNIT   52 AT END OF TIME STEP  26, STRESS PERIOD    2
1
  VOLUMETRIC BUDGET FOR ENTIRE MODEL AT END OF TIME STEP 26 IN STRESS PERIOD   2
  ------------------------------------------------------------------------------

     CUMULATIVE VOLUMES      L**3       RATES FOR THIS TIME STEP      L**3/T
     ------------------                 ------------------------

           IN:                                      IN:
           ---                                      ---
             STORAGE =       12973.6875               STORAGE =         495.2635
       CONSTANT HEAD =       16146.5195         CONSTANT HEAD =         601.5567
               WELLS =           0.0000                 WELLS =           0.0000

            TOTAL IN =       29120.2070              TOTAL IN =        1096.8202

          OUT:                                     OUT:
          ----                                     ----
             STORAGE =       9.4320E-03               STORAGE =           0.0000
       CONSTANT HEAD =       16120.1992         CONSTANT HEAD =         596.8200
               WELLS =       13000.0000                 WELLS =         500.0000

           TOTAL OUT =       29120.2090             TOTAL OUT =        1096.8201

            IN - OUT =      -1.9531E-03              IN - OUT =       1.2207E-04

 PERCENT DISCREPANCY =           0.00     PERCENT DISCREPANCY =           0.00






          TIME SUMMARY AT END OF TIME STEP  26 IN STRESS PERIOD    2
                    SECONDS     MINUTES      HOURS       DAYS        YEARS
                    -----------------------------------------------------------
   TIME STEP LENGTH  86400.      1440.0      24.000      1.0000     2.73785E-03
 STRESS PERIOD TIME 2.24640E+06  37440.      624.00      26.000     7.11841E-02
         TOTAL TIME 2.33280E+06  38880.      648.00      27.000     7.39220E-02
1
 
 SOLVING FOR HEAD 

 OUTPUT CONTROL FOR STRESS PERIOD    2   TIME STEP  27
    SAVE HEAD FOR ALL LAYERS
    SAVE DRAWDOWN FOR ALL LAYERS
    SAVE BUDGET
    PRINT HEAD FOR ALL LAYERS
    PRINT BUDGET
 UBDSV1 SAVING "         STORAGE" ON UNIT  53 AT TIME STEP 27, STRESS PERIOD   2
 UBDSV2 SAVING "   CONSTANT HEAD" ON UNIT  53 AT TIME STEP 27, STRESS PERIOD   2
 UBDSV1 SAVING "FLOW RIGHT FACE " ON UNIT  53 AT TIME STEP 27, STRESS PERIOD   2
 UBDSV1 SAVING "FLOW FRONT FACE " ON UNIT  53 AT TIME STEP 27, STRESS PERIOD   2
1
              HEAD IN LAYER   1 AT END OF TIME STEP  27 IN STRESS PERIOD    2
  ---------------------------------------------------------------------------

            1           2           3           4           5           6           7           8           9          10
           11          12          13          14          15          16          17          18          19          20
           21          22          23          24          25          26          27          28          29          30
           31          32          33          34          35          36          37          38          39          40
           41          42          43          44          45          46          47          48          49          50
 ........................................................................................................................
   1    10.00       9.959       9.901       9.835       9.770       9.697       9.628       9.559       9.473       9.389    
        9.323       9.259       9.193       9.128       9.024       8.899       8.759       8.649       8.592       8.525    
        8.445       8.381       8.317       8.243       8.144       7.948       7.726       7.570       7.418       7.274    
        7.086       6.786       6.402       5.977       5.535       5.066       4.602       4.216       3.711       3.163    
        2.713       2.283       1.806       1.407       1.161      0.9518      0.7863      0.6666      0.4474       0.000    
   2    10.00       9.958       9.906       9.839       9.773       9.709       9.640       9.550       9.456       9.386    
        9.330       9.275       9.219       9.140       9.020       8.889       8.758       8.649       8.590       8.515    
        8.435       8.387       8.336       8.258       8.133       7.941       7.740       7.580       7.425       7.285    
        7.076       6.762       6.359       5.875       5.404       4.950       4.548       4.175       3.662       3.132    
        2.681       2.197       1.762       1.448       1.216       1.036      0.8312      0.6488      0.3619       0.000    
   3    10.00       9.953       9.900       9.841       9.784       9.718       9.629       9.535       9.468       9.406    
        9.342       9.292       9.243       9.166       9.045       8.883       8.740       8.652       8.582       8.507    
        8.441       8.391       8.338       8.236       8.100       7.930       7.755       7.629       7.449       7.266    
        7.003       6.631       6.174       5.705       5.286       4.862       4.468       4.068       3.537       3.046    
        2.658       2.211       1.812       1.525       1.294       1.108      0.8649      0.5799      0.2629       0.000    
   4    10.00       9.953       9.901       9.844       9.779       9.703       9.612       9.539       9.482       9.418    
        9.362       9.320       9.266       9.179       9.061       8.889       8.740       8.657       8.580       8.512    
        8.442       8.380       8.313       8.206       8.072       7.920       7.762       7.607       7.449       7.241    
        6.912       6.422       5.938       5.581       5.231       4.792       4.319       3.850       3.425       3.053    
        2.689       2.274       1.898       1.638       1.378       1.141      0.8405      0.5217      0.2499       0.000    
   5    10.00       9.949       9.898       9.833       9.767       9.696       9.615       9.552       9.493       9.433    
        9.384       9.343       9.272       9.171       9.040       8.884       8.758       8.667       8.591       8.501    
        8.417       8.350       8.269       8.164       8.044       7.890       7.733       7.590       7.430       7.179    
        6.710       6.166       5.777       5.497       5.150       4.674       4.185       3.758       3.438       3.101    
        2.744       2.361       1.987       1.744       1.466       1.124      0.7652      0.4653      0.2340       0.000    
   6    10.00       9.942       9.881       9.827       9.767       9.690       9.621       9.568       9.505       9.448    
        9.403       9.353       9.264       9.150       9.036       8.905       8.778       8.674       8.573       8.469    
        8.386       8.308       8.237       8.143       7.990       7.839       7.712       7.567       7.346       6.969    
        6.455       5.962       5.639       5.395       5.081       4.610       4.121       3.758       3.488       3.182    
        2.853       2.515       2.131       1.806       1.437       1.060      0.6760      0.4017      0.2211       0.000    
   7    10.00       9.931       9.871       9.821       9.759       9.695       9.634       9.583       9.525       9.470    
        9.414       9.339       9.241       9.134       9.026       8.924       8.791       8.650       8.536       8.433    
        8.346       8.270       8.209       8.092       7.937       7.808       7.679       7.488       7.139       6.659    
        6.167       5.767       5.545       5.326       4.962       4.522       4.191       3.837       3.539       3.338    
        3.024       2.661       2.210       1.746       1.333      0.9211      0.5827      0.4048      0.2084       0.000    
   8    10.00       9.931       9.877       9.820       9.758       9.701       9.647       9.596       9.543       9.490    
        9.416       9.321       9.224       9.123       9.024       8.909       8.744       8.597       8.503       8.405    
        8.307       8.242       8.153       8.029       7.894       7.759       7.547       7.251       6.816       6.395    
        6.023       5.708       5.502       5.252       4.864       4.498       4.199       3.937       3.703       3.469    
        3.164       2.706       2.152       1.657       1.227      0.8628      0.6171      0.3966      0.1901       0.000    
   9    10.00       9.942       9.876       9.814       9.768       9.721       9.667       9.612       9.554       9.497    
        9.413       9.305       9.200       9.100       8.994       8.859       8.700       8.564       8.463       8.363    
        8.276       8.192       8.073       7.956       7.832       7.669       7.367       6.971       6.565       6.256    
        5.948       5.682       5.455       5.141       4.779       4.471       4.242       4.046       3.836       3.580    
        3.212       2.713       2.148       1.656       1.237      0.8822      0.6228      0.4002      0.2046       0.000    
  10    10.00       9.939       9.870       9.820       9.777       9.732       9.683       9.636       9.569       9.486    
        9.384       9.271       9.172       9.078       8.970       8.805       8.638       8.521       8.426       8.332    
        8.250       8.137       8.004       7.874       7.732       7.501       7.120       6.708       6.357       6.108    
        5.906       5.677       5.404       5.084       4.742       4.478       4.300       4.129       3.902       3.608    
        3.189       2.671       2.154       1.733       1.340      0.9715      0.6425      0.4252      0.2284       0.000    
  11    10.00       9.927       9.871       9.829       9.787       9.748       9.704       9.639       9.547       9.454    
        9.353       9.243       9.152       9.040       8.894       8.737       8.600       8.495       8.409       8.313    
        8.193       8.050       7.875       7.726       7.495       7.177       6.850       6.540       6.240       6.049    
        5.891       5.606       5.304       5.038       4.772       4.563       4.376       4.157       3.878       3.524    
        3.129       2.728       2.231       1.816       1.441       1.075      0.7222      0.4176      0.1751       0.000    
  12    10.00       9.929       9.877       9.833       9.798       9.757       9.707       9.617       9.511       9.423    
        9.329       9.215       9.104       8.973       8.845       8.702       8.569       8.477       8.383       8.254    
        8.061       7.851       7.647       7.440       7.135       6.892       6.698       6.397       6.143       5.989    
        5.809       5.550       5.293       5.043       4.846       4.647       4.408       4.142       3.803       3.447    
        3.112       2.749       2.269       1.860       1.507       1.124      0.7602      0.3940      0.1307       0.000    
  13    10.00       9.943       9.894       9.847       9.805       9.757       9.678       9.575       9.476       9.386    
        9.281       9.172       9.058       8.921       8.781       8.646       8.550       8.439       8.317       8.072    
        7.786       7.563       7.336       7.064       6.826       6.702       6.486       6.221       6.074       5.930    
        5.715       5.483       5.279       5.084       4.912       4.727       4.442       4.082       3.755       3.418    
        3.097       2.721       2.206       1.827       1.523       1.115      0.6992      0.3405      0.1042       0.000    
  14    10.00       9.956       9.914       9.865       9.807       9.729       9.626       9.524       9.435       9.337    
        9.230       9.128       9.000       8.859       8.736       8.619       8.477       8.338       8.105       7.743    
        7.466       7.249       6.949       6.731       6.613       6.499       6.286       6.116       5.978       5.832    
        5.641       5.463       5.312       5.137       4.949       4.763       4.443       4.051       3.712       3.366    
        3.036       2.569       2.080       1.780       1.436       1.069      0.7010      0.3157      8.9895E-02   0.000    
  15    10.00       9.965       9.921       9.867       9.798       9.686       9.561       9.472       9.389       9.293    
        9.210       9.106       8.944       8.785       8.672       8.498       8.322       8.174       7.823       7.426    
        7.172       6.883       6.624       6.535       6.467       6.328       6.145       5.985       5.875       5.758    
        5.605       5.471       5.342       5.186       4.999       4.772       4.402       3.969       3.613       3.296    
        2.943       2.472       2.085       1.711       1.302      0.9789      0.6270      0.2897      9.8011E-02   0.000    
  16    10.00       9.971       9.925       9.858       9.757       9.624       9.514       9.443       9.370       9.274    
        9.174       9.025       8.827       8.674       8.517       8.318       8.198       7.909       7.413       7.061    
        6.831       6.578       6.478       6.422       6.305       6.129       5.985       5.898       5.833       5.729    
        5.597       5.473       5.365       5.210       4.985       4.684       4.266       3.893       3.609       3.272    
        2.862       2.399       1.983       1.578       1.226      0.8678      0.5630      0.2929      0.1045       0.000    
  17    10.00       9.967       9.912       9.823       9.709       9.572       9.475       9.414       9.329       9.228    
        9.055       8.849       8.684       8.529       8.328       8.130       7.885       7.424       7.001       6.774    
        6.589       6.447       6.375       6.256       6.079       5.952       5.904       5.867       5.801       5.693    
        5.576       5.466       5.352       5.201       4.890       4.499       4.175       3.928       3.651       3.245    
        2.727       2.274       1.889       1.508       1.100      0.7244      0.4803      0.2662      0.1108       0.000    
  18    10.00       9.953       9.883       9.780       9.632       9.517       9.449       9.359       9.258       9.110    
        8.893       8.722       8.567       8.336       8.074       7.802       7.456       7.046       6.781       6.602    
        6.459       6.334       6.220       6.061       5.935       5.891       5.868       5.835       5.760       5.656    
        5.554       5.443       5.299       5.070       4.753       4.434       4.176       3.973       3.627       3.131    
        2.632       2.158       1.770       1.413       1.021      0.6686      0.4062      0.2225      0.1039       0.000    
  19    10.00       9.938       9.856       9.707       9.561       9.494       9.409       9.294       9.172       9.005    
        8.813       8.645       8.402       8.072       7.797       7.526       7.149       6.808       6.636       6.518    
        6.367       6.210       6.083       5.947       5.876       5.851       5.824       5.774       5.694       5.606    
        5.510       5.389       5.201       4.963       4.700       4.428       4.204       3.945       3.458       2.970    
        2.576       2.092       1.671       1.324      0.9387      0.6028      0.3656      0.2113      0.1057       0.000    
  20    10.00       9.920       9.795       9.641       9.534       9.459       9.365       9.242       9.098       8.944    
        8.745       8.496       8.166       7.861       7.616       7.287       6.940       6.762       6.616       6.455    
        6.292       6.129       5.973       5.871       5.822       5.783       5.729       5.680       5.606       5.529    
        5.439       5.319       5.131       4.916       4.676       4.440       4.202       3.802       3.291       2.876    
        2.441       1.972       1.599       1.251      0.8929      0.5417      0.3175      0.2132      0.1076       0.000    
  21    10.00       9.873       9.746       9.620       9.509       9.424       9.323       9.167       9.021       8.872    
        8.615       8.301       7.989       7.737       7.471       7.154       6.903       6.747       6.580       6.405    
        6.207       6.021       5.884       5.780       5.702       5.635       5.593       5.550       5.477       5.419    
        5.350       5.229       5.065       4.875       4.659       4.430       4.094       3.689       3.243       2.750    
        2.311       1.872       1.550       1.231      0.7755      0.4570      0.3252      0.2372      0.1140       0.000    
  22    10.00       9.855       9.705       9.584       9.490       9.389       9.241       9.086       8.957       8.761    
        8.489       8.160       7.889       7.678       7.386       7.092       6.880       6.719       6.553       6.343    
        6.115       5.927       5.751       5.593       5.490       5.442       5.411       5.358       5.330       5.295    
        5.239       5.139       5.013       4.834       4.628       4.406       4.053       3.643       3.118       2.632    
        2.253       1.854       1.497       1.024      0.6371      0.4576      0.3438      0.2285      9.0685E-02   0.000    
  23    10.00       9.823       9.678       9.577       9.475       9.326       9.159       9.039       8.875       8.670    
        8.393       8.098       7.889       7.622       7.306       7.050       6.870       6.723       6.536       6.284    
        6.040       5.820       5.588       5.310       5.064       5.020       5.094       5.129       5.170       5.175    
        5.143       5.066       4.952       4.806       4.606       4.370       4.038       3.525       2.972       2.571    
        2.208       1.754       1.243      0.8341      0.6204      0.4690      0.3428      0.2173      0.1011       0.000    
  24    10.00       9.800       9.695       9.579       9.435       9.272       9.140       9.009       8.847       8.611    
        8.354       8.125       7.895       7.573       7.239       7.035       6.887       6.735       6.509       6.255    
        6.014       5.762       5.407       4.771       3.810       4.144       4.589       4.866       5.006       5.056    
        5.053       4.995       4.906       4.755       4.562       4.323       3.910       3.367       2.895       2.470    
        2.028       1.550       1.099      0.7940      0.6162      0.4655      0.3343      0.2532      0.1394       0.000    
  25    10.00       9.826       9.715       9.576       9.425       9.278       9.143       9.018       8.821       8.585    
        8.369       8.148       7.865       7.512       7.252       7.067       6.903       6.724       6.514       6.280    
        6.021       5.770       5.126       3.766      0.6657       3.197       4.155       4.629       4.872       4.971    
        4.983       4.945       4.852       4.675       4.470       4.181       3.756       3.234       2.806       2.346    
        1.837       1.388       1.020      0.7840      0.6400      0.5000      0.3652      0.2690      0.1755       0.000    
  26    10.00       9.851       9.747       9.598       9.441       9.313       9.173       9.014       8.812       8.628    
        8.442       8.148       7.790       7.488       7.299       7.134       6.940       6.708       6.486       6.285    
        6.086       5.813       5.223       4.243       3.208       3.729       4.287       4.631       4.835       4.935    
        4.939       4.897       4.783       4.609       4.410       4.096       3.540       3.061       2.703       2.143    
        1.593       1.223       1.008      0.8496      0.6968      0.5417      0.4014      0.2939      0.1755       0.000    
  27    10.00       9.884       9.758       9.630       9.491       9.342       9.202       9.049       8.867       8.691    
        8.440       8.092       7.782       7.537       7.372       7.187       6.931       6.677       6.497       6.338    
        6.174       5.895       5.456       4.922       4.355       4.384       4.583       4.761       4.885       4.931    
        4.915       4.862       4.751       4.574       4.308       3.820       3.298       2.926       2.381       1.836    
        1.445       1.205       1.049      0.9154      0.7744      0.5957      0.4287      0.3208      0.2156       0.000    
  28    10.00       9.895       9.788       9.666       9.539       9.398       9.253       9.098       8.926       8.722    
        8.413       8.097       7.828       7.594       7.423       7.235       7.018       6.771       6.536       6.380    
        6.234       6.036       5.748       5.356       5.004       4.848       4.862       4.940       4.961       4.955    
        4.907       4.835       4.702       4.457       4.067       3.562       3.127       2.624       2.091       1.733    
        1.451       1.254       1.099      0.9665      0.8216      0.6506      0.4854      0.3646      0.2222       0.000    
  29    10.00       9.900       9.798       9.707       9.585       9.455       9.316       9.160       8.977       8.702    
        8.398       8.120       7.864       7.671       7.475       7.272       7.074       6.878       6.654       6.456    
        6.301       6.136       5.940       5.703       5.386       5.214       5.147       5.113       5.078       4.995    
        4.896       4.760       4.593       4.261       3.805       3.361       2.917       2.416       2.014       1.757    
        1.527       1.311       1.142       1.013      0.8716      0.6962      0.5261      0.3850      0.2244       0.000    
  30    10.00       9.909       9.824       9.744       9.637       9.518       9.394       9.219       8.990       8.709    
        8.395       8.112       7.898       7.706       7.511       7.316       7.151       6.986       6.786       6.576    
        6.394       6.244       6.075       5.905       5.700       5.509       5.425       5.298       5.193       5.036    
        4.848       4.626       4.394       4.047       3.688       3.275       2.822       2.367       2.076       1.841    
        1.582       1.369       1.207       1.053      0.8937      0.7386      0.5602      0.4010      0.2423       0.000    
  31    10.00       9.924       9.851       9.776       9.698       9.603       9.467       9.260       8.994       8.701    
        8.398       8.134       7.930       7.734       7.560       7.380       7.210       7.084       6.891       6.691    
        6.518       6.361       6.213       6.049       5.906       5.756       5.608       5.456       5.265       5.038    
        4.756       4.482       4.247       3.983       3.631       3.206       2.778       2.408       2.175       1.964    
        1.695       1.450       1.260       1.097      0.9389      0.7746      0.5960      0.4281      0.2356       0.000    
  32    10.00       9.935       9.880       9.814       9.738       9.652       9.515       9.279       9.028       8.761    
        8.440       8.167       7.963       7.778       7.601       7.449       7.300       7.143       6.986       6.798    
        6.613       6.444       6.291       6.131       6.004       5.901       5.737       5.535       5.265       4.963    
        4.676       4.426       4.190       3.942       3.608       3.228       2.871       2.549       2.300       2.061    
        1.810       1.554       1.352       1.162      0.9812      0.8328      0.6500      0.4282      0.2126       0.000    
  33    10.00       9.944       9.898       9.845       9.771       9.673       9.498       9.268       9.058       8.809    
        8.496       8.224       8.013       7.810       7.644       7.515       7.385       7.228       7.056       6.878    
        6.687       6.504       6.321       6.170       6.071       5.967       5.769       5.496       5.217       4.942    
        4.672       4.452       4.221       3.917       3.604       3.264       2.959       2.699       2.439       2.178    
        1.944       1.701       1.480       1.280       1.079      0.9032      0.6979      0.4366      0.2056       0.000    
  34    10.00       9.950       9.919       9.872       9.780       9.643       9.473       9.304       9.087       8.816    
        8.538       8.271       8.043       7.838       7.692       7.592       7.453       7.293       7.102       6.930    
        6.751       6.534       6.354       6.217       6.112       5.966       5.727       5.487       5.209       4.909    
        4.683       4.499       4.283       3.985       3.670       3.362       3.081       2.848       2.581       2.319    
        2.095       1.873       1.638       1.433       1.221       1.014      0.7530      0.4836      0.2550       0.000    
  35    10.00       9.958       9.922       9.863       9.748       9.602       9.478       9.333       9.132       8.839    
        8.541       8.291       8.059       7.884       7.763       7.651       7.503       7.322       7.134       6.942    
        6.755       6.557       6.372       6.242       6.125       5.982       5.739       5.455       5.158       4.877    
        4.712       4.531       4.304       4.076       3.809       3.484       3.203       3.015       2.745       2.454    
        2.245       2.022       1.798       1.598       1.360       1.130      0.8674      0.5788      0.2892       0.000    
  36    10.00       9.955       9.904       9.837       9.722       9.583       9.471       9.334       9.131       8.854    
        8.542       8.268       8.095       7.960       7.845       7.703       7.522       7.341       7.134       6.880    
        6.681       6.520       6.364       6.250       6.140       5.967       5.701       5.409       5.107       4.864    
        4.709       4.554       4.347       4.134       3.907       3.612       3.334       3.128       2.893       2.580    
        2.345       2.119       1.891       1.726       1.497       1.242      0.9801      0.6789      0.3452       0.000    
  37    10.00       9.941       9.884       9.810       9.693       9.566       9.439       9.306       9.118       8.818    
        8.500       8.276       8.170       8.041       7.887       7.740       7.526       7.302       7.033       6.772    
        6.632       6.504       6.355       6.233       6.102       5.888       5.641       5.330       5.071       4.898    
        4.746       4.579       4.368       4.182       3.947       3.666       3.447       3.248       2.987       2.675    
        2.394       2.174       1.993       1.809       1.592       1.354       1.104      0.7661      0.4150       0.000    
  38    10.00       9.934       9.860       9.780       9.672       9.547       9.405       9.265       9.063       8.784    
        8.540       8.362       8.227       8.106       7.929       7.695       7.445       7.161       6.867       6.708    
        6.600       6.439       6.290       6.188       6.038       5.817       5.519       5.245       5.101       4.963    
        4.794       4.607       4.407       4.219       3.988       3.732       3.536       3.333       3.023       2.697    
        2.454       2.251       2.067       1.882       1.689       1.460       1.201      0.8764      0.4547       0.000    
  39    10.00       9.915       9.840       9.761       9.654       9.513       9.359       9.210       9.025       8.799    
        8.608       8.474       8.321       8.143       7.870       7.558       7.243       6.937       6.763       6.668    
        6.511       6.335       6.228       6.132       5.987       5.731       5.444       5.275       5.150       5.004    
        4.822       4.645       4.443       4.242       4.047       3.836       3.611       3.375       3.055       2.735    
        2.479       2.276       2.133       1.986       1.777       1.543       1.282      0.9286      0.4547       0.000    
  40    10.00       9.901       9.827       9.747       9.638       9.490       9.331       9.179       9.022       8.834    
        8.675       8.558       8.358       8.061       7.706       7.355       7.038       6.834       6.725       6.601    
        6.425       6.276       6.183       6.060       5.891       5.683       5.500       5.334       5.185       5.048    
        4.880       4.683       4.477       4.290       4.111       3.897       3.655       3.418       3.071       2.721    
        2.491       2.322       2.173       2.047       1.835       1.575       1.335      0.9647      0.4763       0.000    
  41    10.00       9.908       9.821       9.731       9.610       9.475       9.336       9.200       9.048       8.879    
        8.728       8.579       8.298       7.913       7.521       7.205       6.961       6.792       6.677       6.532    
        6.352       6.227       6.118       5.987       5.842       5.697       5.564       5.404       5.227       5.068    
        4.917       4.730       4.523       4.353       4.166       3.958       3.710       3.380       2.996       2.728    
        2.541       2.365       2.228       2.069       1.846       1.588       1.376       1.024      0.5243       0.000    
  42    10.00       9.910       9.814       9.730       9.625       9.498       9.358       9.207       9.070       8.938    
        8.752       8.477       8.121       7.724       7.373       7.132       6.921       6.763       6.627       6.453    
        6.289       6.171       6.059       5.968       5.848       5.743       5.620       5.435       5.245       5.104    
        4.972       4.770       4.549       4.389       4.229       3.996       3.677       3.283       2.942       2.738    
        2.589       2.440       2.271       2.064       1.832       1.625       1.411       1.066      0.5485       0.000    
  43    10.00       9.911       9.822       9.737       9.652       9.539       9.398       9.248       9.097       8.905    
        8.630       8.312       7.948       7.567       7.297       7.097       6.898       6.731       6.566       6.393    
        6.241       6.131       6.050       5.980       5.876       5.762       5.641       5.460       5.291       5.177    
        5.009       4.787       4.580       4.422       4.238       3.953       3.579       3.199       2.963       2.802    
        2.644       2.483       2.276       2.053       1.841       1.641       1.449       1.063      0.4787       0.000    
  44    10.00       9.905       9.824       9.749       9.656       9.569       9.449       9.263       9.058       8.786    
        8.507       8.173       7.776       7.500       7.293       7.071       6.854       6.661       6.482       6.328    
        6.221       6.134       6.060       5.988       5.898       5.782       5.640       5.498       5.367       5.223    
        5.062       4.862       4.627       4.405       4.189       3.898       3.508       3.180       2.991       2.835    
        2.683       2.506       2.298       2.100       1.878       1.656       1.405      0.9100      0.4021       0.000    
  45    10.00       9.905       9.838       9.752       9.664       9.586       9.409       9.195       8.952       8.684    
        8.450       8.049       7.681       7.475       7.263       7.019       6.772       6.575       6.419       6.310    
        6.234       6.158       6.081       5.994       5.897       5.791       5.672       5.552       5.445       5.297    
        5.104       4.890       4.653       4.384       4.139       3.823       3.457       3.199       3.043       2.887    
        2.691       2.486       2.304       2.124       1.931       1.692       1.267      0.7627      0.3863       0.000    
  46    10.00       9.921       9.849       9.759       9.661       9.513       9.325       9.148       8.925       8.663    
        8.325       7.956       7.661       7.404       7.187       6.946       6.699       6.546       6.429       6.330    
        6.260       6.190       6.097       5.994       5.898       5.804       5.707       5.601       5.494       5.358    
        5.177       4.954       4.691       4.387       4.046       3.707       3.440       3.264       3.091       2.912    
        2.686       2.472       2.291       2.146       1.939       1.605       1.136      0.7184      0.3650       0.000    
  47    10.00       9.939       9.872       9.777       9.607       9.428       9.268       9.115       8.916       8.589    
        8.224       7.882       7.598       7.382       7.149       6.881       6.670       6.534       6.441       6.359    
        6.284       6.202       6.111       6.009       5.915       5.834       5.748       5.643       5.519       5.384    
        5.225       5.026       4.685       4.283       3.963       3.714       3.483       3.332       3.173       2.923    
        2.654       2.429       2.261       2.143       1.883       1.485       1.054      0.6912      0.3548       0.000    
  48    10.00       9.946       9.875       9.732       9.561       9.412       9.241       9.087       8.874       8.529    
        8.132       7.822       7.592       7.334       7.063       6.824       6.665       6.532       6.443       6.382    
        6.307       6.209       6.108       6.020       5.944       5.876       5.794       5.677       5.531       5.374    
        5.209       4.981       4.629       4.299       4.019       3.772       3.555       3.385       3.179       2.880    
        2.596       2.415       2.275       2.054       1.707       1.351       1.006      0.6961      0.3745       0.000    
  49    10.00       9.943       9.841       9.714       9.574       9.400       9.228       9.056       8.791       8.426    
        8.084       7.794       7.516       7.272       7.064       6.838       6.633       6.513       6.454       6.395    
        6.324       6.214       6.102       6.029       5.967       5.913       5.821       5.679       5.514       5.363    
        5.190       4.912       4.614       4.393       4.137       3.847       3.585       3.378       3.142       2.823    
        2.593       2.435       2.226       1.894       1.585       1.294      0.9949      0.6960      0.3732       0.000    
  50    10.00       9.935       9.830       9.699       9.572       9.411       9.218       9.002       8.723       8.435    
        8.077       7.714       7.457       7.262       7.086       6.832       6.605       6.515       6.462       6.403    
        6.332       6.218       6.104       6.033       5.980       5.930       5.826       5.664       5.496       5.353    
        5.175       4.889       4.659       4.460       4.192       3.903       3.629       3.347       3.024       2.757    
        2.638       2.459       2.136       1.803       1.573       1.292       1.009      0.6816      0.3039       0.000    

 HEAD WILL BE SAVED ON UNIT   51 AT END OF TIME STEP  27, STRESS PERIOD    2

 DRAWDOWN WILL BE SAVED ON UNIT   52 AT END OF TIME STEP  27, STRESS PERIOD    2
1
  VOLUMETRIC BUDGET FOR ENTIRE MODEL AT END OF TIME STEP 27 IN STRESS PERIOD   2
  ------------------------------------------------------------------------------

     CUMULATIVE VOLUMES      L**3       RATES FOR THIS TIME STEP      L**3/T
     ------------------                 ------------------------

           IN:                                      IN:
           ---                                      ---
             STORAGE =       13468.2314               STORAGE =         494.5437
       CONSTANT HEAD =       16748.7383         CONSTANT HEAD =         602.2178
               WELLS =           0.0000                 WELLS =           0.0000

            TOTAL IN =       30216.9688              TOTAL IN =        1096.7615

          OUT:                                     OUT:
          ----                                     ----
             STORAGE =       9.4320E-03               STORAGE =           0.0000
       CONSTANT HEAD =       16716.9609         CONSTANT HEAD =         596.7612
               WELLS =       13500.0000                 WELLS =         500.0000

           TOTAL OUT =       30216.9707             TOTAL OUT =        1096.7612

            IN - OUT =      -1.9531E-03              IN - OUT =       2.4414E-04

 PERCENT DISCREPANCY =           0.00     PERCENT DISCREPANCY =           0.00






          TIME SUMMARY AT END OF TIME STEP  27 IN STRESS PERIOD    2
                    SECONDS     MINUTES      HOURS       DAYS        YEARS
                    -----------------------------------------------------------
   TIME STEP LENGTH  86400.      1440.0      24.000      1.0000     2.73785E-03
 STRESS PERIOD TIME 2.33280E+06  38880.      648.00      27.000     7.39220E-02
         TOTAL TIME 2.41920E+06  40320.      672.00      28.000     7.66598E-02
1
 
 SOLVING FOR HEAD 

 OUTPUT CONTROL FOR STRESS PERIOD    2   TIME STEP  28
    SAVE HEAD FOR ALL LAYERS
    SAVE DRAWDOWN FOR ALL LAYERS
    SAVE BUDGET
    PRINT HEAD FOR ALL LAYERS
    PRINT BUDGET
 UBDSV1 SAVING "         STORAGE" ON UNIT  53 AT TIME STEP 28, STRESS PERIOD   2
 UBDSV2 SAVING "   CONSTANT HEAD" ON UNIT  53 AT TIME STEP 28, STRESS PERIOD   2
 UBDSV1 SAVING "FLOW RIGHT FACE " ON UNIT  53 AT TIME STEP 28, STRESS PERIOD   2
 UBDSV1 SAVING "FLOW FRONT FACE " ON UNIT  53 AT TIME STEP 28, STRESS PERIOD   2
1
              HEAD IN LAYER   1 AT END OF TIME STEP  28 IN STRESS PERIOD    2
  ---------------------------------------------------------------------------

            1           2           3           4           5           6           7           8           9          10
           11          12          13          14          15          16          17          18          19          20
           21          22          23          24          25          26          27          28          29          30
           31          32          33          34          35          36          37          38          39          40
           41          42          43          44          45          46          47          48          49          50
 ........................................................................................................................
   1    10.00       9.959       9.901       9.835       9.770       9.697       9.627       9.559       9.472       9.388    
        9.322       9.258       9.191       9.127       9.023       8.898       8.757       8.647       8.590       8.523    
        8.443       8.379       8.315       8.241       8.142       7.946       7.724       7.569       7.416       7.272    
        7.085       6.785       6.401       5.976       5.534       5.065       4.602       4.215       3.711       3.163    
        2.713       2.283       1.806       1.407       1.161      0.9517      0.7863      0.6665      0.4473       0.000    
   2    10.00       9.958       9.906       9.839       9.773       9.708       9.640       9.549       9.455       9.385    
        9.329       9.274       9.218       9.138       9.019       8.888       8.756       8.647       8.588       8.513    
        8.433       8.385       8.334       8.256       8.131       7.939       7.738       7.578       7.423       7.283    
        7.074       6.760       6.358       5.874       5.403       4.949       4.548       4.174       3.661       3.132    
        2.680       2.197       1.762       1.448       1.216       1.036      0.8311      0.6487      0.3619       0.000    
   3    10.00       9.953       9.900       9.841       9.783       9.718       9.629       9.534       9.468       9.405    
        9.342       9.291       9.242       9.165       9.043       8.881       8.738       8.650       8.581       8.505    
        8.439       8.389       8.336       8.234       8.098       7.927       7.753       7.627       7.448       7.264    
        7.002       6.630       6.173       5.704       5.285       4.862       4.468       4.068       3.536       3.045    
        2.658       2.211       1.812       1.524       1.294       1.108      0.8648      0.5798      0.2629       0.000    
   4    10.00       9.953       9.901       9.844       9.778       9.702       9.611       9.539       9.481       9.417    
        9.361       9.319       9.265       9.178       9.059       8.887       8.738       8.655       8.578       8.510    
        8.440       8.377       8.311       8.204       8.069       7.918       7.760       7.605       7.447       7.239    
        6.910       6.421       5.936       5.580       5.230       4.791       4.318       3.849       3.424       3.052    
        2.689       2.274       1.898       1.638       1.378       1.141      0.8403      0.5216      0.2499       0.000    
   5    10.00       9.949       9.897       9.832       9.767       9.696       9.614       9.551       9.492       9.432    
        9.384       9.342       9.271       9.170       9.039       8.883       8.756       8.665       8.589       8.498    
        8.415       8.348       8.267       8.162       8.042       7.887       7.730       7.588       7.428       7.177    
        6.708       6.163       5.775       5.495       5.149       4.673       4.184       3.757       3.437       3.100    
        2.743       2.360       1.986       1.744       1.465       1.123      0.7651      0.4652      0.2340       0.000    
   6    10.00       9.942       9.881       9.827       9.767       9.690       9.621       9.567       9.504       9.448    
        9.402       9.352       9.262       9.148       9.035       8.903       8.776       8.672       8.571       8.467    
        8.383       8.305       8.234       8.140       7.987       7.835       7.709       7.564       7.343       6.966    
        6.452       5.959       5.636       5.392       5.079       4.608       4.120       3.757       3.487       3.181    
        2.852       2.514       2.131       1.806       1.437       1.060      0.6760      0.4016      0.2211       0.000    
   7    10.00       9.931       9.871       9.821       9.759       9.695       9.633       9.582       9.525       9.469    
        9.413       9.338       9.240       9.133       9.025       8.922       8.789       8.648       8.533       8.430    
        8.343       8.267       8.206       8.089       7.933       7.804       7.676       7.484       7.135       6.655    
        6.163       5.763       5.541       5.323       4.959       4.519       4.188       3.835       3.537       3.336    
        3.023       2.660       2.209       1.745       1.332      0.9210      0.5826      0.4047      0.2083       0.000    
   8    10.00       9.930       9.877       9.819       9.757       9.700       9.647       9.595       9.542       9.489    
        9.415       9.320       9.223       9.122       9.022       8.907       8.742       8.594       8.500       8.402    
        8.304       8.238       8.149       8.025       7.890       7.755       7.543       7.246       6.811       6.390    
        6.018       5.703       5.498       5.248       4.860       4.495       4.196       3.935       3.701       3.468    
        3.162       2.705       2.152       1.657       1.227      0.8626      0.6170      0.3966      0.1901       0.000    
   9    10.00       9.942       9.876       9.814       9.768       9.720       9.667       9.612       9.553       9.497    
        9.412       9.304       9.199       9.098       8.992       8.857       8.698       8.561       8.460       8.359    
        8.272       8.188       8.069       7.951       7.828       7.665       7.362       6.965       6.558       6.250    
        5.942       5.677       5.449       5.136       4.775       4.467       4.239       4.043       3.834       3.578    
        3.211       2.712       2.148       1.656       1.237      0.8821      0.6228      0.4002      0.2046       0.000    
  10    10.00       9.939       9.870       9.819       9.777       9.731       9.683       9.636       9.568       9.485    
        9.382       9.270       9.170       9.076       8.967       8.802       8.635       8.517       8.423       8.328    
        8.246       8.132       8.000       7.868       7.726       7.495       7.113       6.700       6.349       6.100    
        5.899       5.670       5.397       5.078       4.737       4.474       4.296       4.126       3.899       3.606    
        3.187       2.670       2.153       1.733       1.340      0.9713      0.6425      0.4251      0.2284       0.000    
  11    10.00       9.926       9.871       9.829       9.786       9.748       9.703       9.638       9.547       9.454    
        9.352       9.242       9.150       9.038       8.891       8.734       8.596       8.491       8.405       8.308    
        8.188       8.045       7.869       7.719       7.487       7.168       6.841       6.531       6.230       6.040    
        5.883       5.598       5.297       5.032       4.766       4.558       4.371       4.154       3.875       3.521    
        3.127       2.727       2.230       1.815       1.441       1.075      0.7220      0.4175      0.1751       0.000    
  12    10.00       9.929       9.877       9.833       9.797       9.757       9.706       9.616       9.510       9.422    
        9.327       9.214       9.102       8.970       8.842       8.698       8.565       8.473       8.379       8.249    
        8.055       7.844       7.638       7.431       7.124       6.881       6.686       6.386       6.132       5.979    
        5.799       5.540       5.285       5.036       4.839       4.641       4.403       4.138       3.800       3.445    
        3.110       2.748       2.268       1.860       1.507       1.123      0.7600      0.3940      0.1307       0.000    
  13    10.00       9.943       9.894       9.847       9.805       9.757       9.677       9.574       9.475       9.385    
        9.280       9.170       9.055       8.918       8.777       8.642       8.545       8.434       8.312       8.065    
        7.777       7.553       7.325       7.051       6.812       6.689       6.472       6.207       6.061       5.918    
        5.703       5.473       5.269       5.076       4.904       4.720       4.437       4.078       3.751       3.415    
        3.095       2.720       2.206       1.826       1.522       1.115      0.6991      0.3405      0.1042       0.000    
  14    10.00       9.956       9.914       9.864       9.806       9.728       9.625       9.523       9.434       9.336    
        9.228       9.126       8.997       8.855       8.732       8.614       8.472       8.332       8.097       7.733    
        7.454       7.235       6.934       6.715       6.597       6.483       6.270       6.100       5.963       5.817    
        5.627       5.451       5.301       5.127       4.941       4.755       4.437       4.046       3.709       3.363    
        3.034       2.568       2.079       1.780       1.435       1.069      0.7009      0.3156      8.9880E-02   0.000    
  15    10.00       9.965       9.921       9.867       9.797       9.685       9.560       9.471       9.388       9.291    
        9.208       9.103       8.940       8.780       8.667       8.492       8.314       8.166       7.812       7.412    
        7.157       6.867       6.606       6.518       6.449       6.310       6.128       5.968       5.859       5.742    
        5.590       5.458       5.330       5.175       4.989       4.763       4.395       3.964       3.609       3.293    
        2.941       2.471       2.084       1.711       1.302      0.9787      0.6269      0.2897      9.7992E-02   0.000    
  16    10.00       9.971       9.925       9.857       9.757       9.623       9.513       9.441       9.369       9.272    
        9.172       9.022       8.823       8.669       8.510       8.310       8.189       7.898       7.398       7.043    
        6.813       6.559       6.459       6.403       6.286       6.110       5.965       5.879       5.815       5.712    
        5.581       5.459       5.351       5.198       4.975       4.676       4.259       3.887       3.605       3.268    
        2.860       2.398       1.982       1.577       1.225      0.8675      0.5629      0.2928      0.1045       0.000    
  17    10.00       9.967       9.912       9.822       9.709       9.571       9.474       9.412       9.327       9.226    
        9.052       8.844       8.678       8.522       8.320       8.120       7.873       7.408       6.982       6.754    
        6.569       6.426       6.355       6.235       6.058       5.931       5.883       5.847       5.783       5.675    
        5.560       5.451       5.337       5.188       4.879       4.490       4.168       3.922       3.646       3.242    
        2.725       2.272       1.888       1.507       1.099      0.7242      0.4801      0.2661      0.1108       0.000    
  18    10.00       9.953       9.883       9.780       9.631       9.516       9.448       9.357       9.255       9.107    
        8.889       8.716       8.560       8.327       8.063       7.788       7.439       7.027       6.760       6.581    
        6.437       6.312       6.198       6.039       5.914       5.870       5.847       5.814       5.740       5.637    
        5.536       5.427       5.284       5.057       4.742       4.425       4.168       3.966       3.622       3.127    
        2.629       2.156       1.769       1.412       1.021      0.6684      0.4061      0.2225      0.1038       0.000    
  19    10.00       9.938       9.856       9.707       9.560       9.493       9.408       9.292       9.169       9.002    
        8.808       8.639       8.393       8.061       7.784       7.510       7.130       6.787       6.615       6.496    
        6.345       6.188       6.060       5.924       5.854       5.829       5.802       5.752       5.673       5.586    
        5.491       5.371       5.186       4.950       4.688       4.418       4.196       3.938       3.453       2.967    
        2.573       2.090       1.670       1.323      0.9383      0.6026      0.3655      0.2112      0.1057       0.000    
  20    10.00       9.920       9.795       9.641       9.533       9.458       9.364       9.240       9.095       8.940    
        8.739       8.488       8.155       7.848       7.600       7.269       6.919       6.741       6.594       6.433    
        6.270       6.106       5.950       5.848       5.799       5.760       5.707       5.657       5.584       5.508    
        5.419       5.300       5.114       4.901       4.664       4.430       4.193       3.795       3.287       2.873    
        2.438       1.970       1.598       1.251      0.8925      0.5415      0.3174      0.2131      0.1076       0.000    
  21    10.00       9.873       9.746       9.620       9.508       9.423       9.321       9.165       9.017       8.868    
        8.608       8.291       7.977       7.722       7.454       7.134       6.882       6.726       6.558       6.382    
        6.184       5.998       5.860       5.757       5.679       5.612       5.570       5.527       5.454       5.396    
        5.329       5.209       5.047       4.859       4.645       4.419       4.086       3.682       3.239       2.747    
        2.310       1.871       1.549       1.230      0.7752      0.4569      0.3251      0.2371      0.1139       0.000    
  22    10.00       9.855       9.705       9.583       9.488       9.387       9.238       9.083       8.953       8.755    
        8.481       8.149       7.876       7.663       7.369       7.073       6.859       6.697       6.531       6.320    
        6.091       5.903       5.726       5.569       5.466       5.418       5.387       5.334       5.306       5.271    
        5.216       5.119       4.994       4.818       4.614       4.394       4.044       3.636       3.114       2.630    
        2.251       1.853       1.496       1.024      0.6369      0.4575      0.3437      0.2285      9.0663E-02   0.000    
  23    10.00       9.823       9.677       9.576       9.473       9.324       9.156       9.035       8.870       8.664    
        8.384       8.087       7.875       7.606       7.288       7.030       6.849       6.701       6.513       6.260    
        6.016       5.796       5.563       5.285       5.039       4.994       5.068       5.104       5.145       5.151    
        5.119       5.045       4.932       4.788       4.592       4.358       4.029       3.519       2.968       2.569    
        2.206       1.753       1.242      0.8338      0.6202      0.4688      0.3427      0.2172      0.1011       0.000    
  24    10.00       9.799       9.694       9.578       9.433       9.269       9.137       9.005       8.842       8.604    
        8.345       8.114       7.881       7.557       7.220       7.015       6.866       6.713       6.487       6.232    
        5.990       5.738       5.382       4.745       3.783       4.116       4.562       4.839       4.981       5.031    
        5.029       4.973       4.886       4.737       4.547       4.310       3.901       3.361       2.892       2.467    
        2.027       1.550       1.099      0.7938      0.6160      0.4654      0.3343      0.2532      0.1393       0.000    
  25    10.00       9.825       9.714       9.575       9.423       9.276       9.140       9.014       8.815       8.578    
        8.360       8.137       7.852       7.496       7.234       7.048       6.883       6.703       6.492       6.257    
        5.997       5.746       5.100       3.739      0.6360       3.169       4.127       4.602       4.845       4.946    
        4.959       4.923       4.832       4.658       4.456       4.169       3.747       3.228       2.803       2.344    
        1.836       1.387       1.020      0.7838      0.6399      0.4999      0.3651      0.2690      0.1755       0.000    
  26    10.00       9.851       9.746       9.596       9.439       9.310       9.170       9.010       8.806       8.621    
        8.433       8.137       7.776       7.472       7.282       7.115       6.920       6.687       6.463       6.262    
        6.062       5.789       5.197       4.215       3.179       3.700       4.258       4.603       4.808       4.909    
        4.915       4.875       4.763       4.591       4.396       4.085       3.533       3.056       2.700       2.141    
        1.592       1.222       1.007      0.8494      0.6966      0.5416      0.4013      0.2939      0.1755       0.000    
  27    10.00       9.884       9.757       9.629       9.489       9.339       9.199       9.045       8.862       8.684    
        8.432       8.081       7.768       7.522       7.355       7.169       6.911       6.656       6.475       6.315    
        6.150       5.871       5.431       4.895       4.327       4.355       4.554       4.733       4.858       4.906    
        4.891       4.840       4.731       4.557       4.294       3.810       3.292       2.922       2.378       1.835    
        1.445       1.205       1.049      0.9151      0.7742      0.5956      0.4286      0.3207      0.2155       0.000    
  28    10.00       9.894       9.787       9.665       9.538       9.396       9.251       9.095       8.921       8.716    
        8.405       8.086       7.815       7.579       7.407       7.218       6.999       6.751       6.514       6.357    
        6.211       6.012       5.723       5.330       4.977       4.820       4.834       4.912       4.934       4.930    
        4.884       4.813       4.683       4.442       4.056       3.555       3.122       2.621       2.089       1.732    
        1.450       1.253       1.099      0.9662      0.8215      0.6504      0.4853      0.3645      0.2222       0.000    
  29    10.00       9.899       9.798       9.706       9.583       9.453       9.313       9.156       8.972       8.696    
        8.389       8.110       7.852       7.658       7.459       7.255       7.056       6.859       6.633       6.434    
        6.279       6.113       5.916       5.677       5.360       5.187       5.120       5.086       5.052       4.971    
        4.874       4.741       4.577       4.249       3.797       3.355       2.913       2.414       2.013       1.756    
        1.527       1.310       1.142       1.013      0.8714      0.6961      0.5260      0.3849      0.2243       0.000    
  30    10.00       9.908       9.824       9.743       9.636       9.516       9.391       9.216       8.986       8.703    
        8.387       8.102       7.887       7.693       7.497       7.300       7.134       6.968       6.767       6.555    
        6.372       6.221       6.052       5.880       5.675       5.484       5.400       5.272       5.170       5.015    
        4.829       4.610       4.381       4.038       3.681       3.271       2.819       2.366       2.075       1.840    
        1.581       1.369       1.207       1.052      0.8936      0.7384      0.5601      0.4009      0.2422       0.000    
  31    10.00       9.924       9.851       9.775       9.697       9.602       9.465       9.257       8.990       8.695    
        8.390       8.125       7.920       7.721       7.547       7.365       7.194       7.067       6.873       6.671    
        6.497       6.340       6.191       6.027       5.884       5.733       5.585       5.433       5.244       5.020    
        4.742       4.471       4.238       3.976       3.625       3.203       2.776       2.407       2.174       1.963    
        1.694       1.449       1.260       1.097      0.9387      0.7745      0.5959      0.4281      0.2356       0.000    
  32    10.00       9.935       9.879       9.813       9.737       9.651       9.514       9.277       9.025       8.756    
        8.434       8.158       7.953       7.767       7.589       7.435       7.286       7.127       6.969       6.780    
        6.594       6.424       6.271       6.111       5.984       5.880       5.716       5.515       5.248       4.950    
        4.666       4.417       4.183       3.936       3.603       3.226       2.869       2.548       2.299       2.060    
        1.810       1.554       1.352       1.162      0.9811      0.8327      0.6499      0.4281      0.2125       0.000    
  33    10.00       9.944       9.898       9.845       9.771       9.672       9.496       9.266       9.055       8.805    
        8.491       8.217       8.004       7.800       7.633       7.503       7.372       7.214       7.041       6.861    
        6.669       6.486       6.302       6.152       6.052       5.947       5.751       5.481       5.204       4.932    
        4.664       4.445       4.215       3.912       3.600       3.261       2.957       2.698       2.438       2.177    
        1.943       1.701       1.479       1.279       1.079      0.9031      0.6978      0.4365      0.2056       0.000    
  34    10.00       9.949       9.918       9.872       9.779       9.642       9.472       9.302       9.085       8.813    
        8.533       8.265       8.036       7.829       7.683       7.582       7.442       7.280       7.088       6.916    
        6.736       6.518       6.337       6.201       6.095       5.950       5.713       5.475       5.199       4.901    
        4.676       4.493       4.279       3.981       3.667       3.360       3.080       2.846       2.580       2.318    
        2.095       1.872       1.638       1.433       1.221       1.014      0.7530      0.4836      0.2550       0.000    
  35    10.00       9.958       9.922       9.862       9.747       9.602       9.477       9.332       9.130       8.836    
        8.537       8.286       8.052       7.877       7.755       7.642       7.492       7.311       7.122       6.929    
        6.742       6.544       6.358       6.228       6.112       5.969       5.728       5.445       5.150       4.871    
        4.707       4.527       4.301       4.073       3.807       3.483       3.202       3.014       2.745       2.454    
        2.244       2.022       1.798       1.598       1.360       1.130      0.8674      0.5788      0.2892       0.000    
  36    10.00       9.955       9.904       9.836       9.721       9.583       9.470       9.333       9.129       8.851    
        8.538       8.264       8.089       7.953       7.837       7.694       7.513       7.332       7.124       6.870    
        6.671       6.510       6.353       6.239       6.130       5.957       5.692       5.402       5.102       4.860    
        4.706       4.551       4.345       4.132       3.905       3.611       3.333       3.127       2.892       2.579    
        2.344       2.119       1.891       1.726       1.497       1.242      0.9801      0.6788      0.3452       0.000    
  37    10.00       9.941       9.884       9.810       9.693       9.566       9.439       9.305       9.116       8.815    
        8.497       8.272       8.165       8.035       7.880       7.733       7.519       7.294       7.025       6.764    
        6.624       6.496       6.347       6.225       6.093       5.880       5.635       5.326       5.068       4.895    
        4.743       4.576       4.366       4.181       3.946       3.665       3.446       3.247       2.986       2.675    
        2.394       2.174       1.993       1.809       1.592       1.354       1.104      0.7661      0.4150       0.000    
  38    10.00       9.934       9.860       9.780       9.672       9.547       9.404       9.264       9.062       8.782    
        8.537       8.359       8.223       8.101       7.924       7.689       7.439       7.155       6.861       6.702    
        6.594       6.433       6.284       6.182       6.032       5.812       5.515       5.242       5.099       4.961    
        4.792       4.605       4.405       4.217       3.987       3.731       3.536       3.333       3.022       2.697    
        2.453       2.251       2.067       1.882       1.689       1.460       1.201      0.8764      0.4547       0.000    
  39    10.00       9.915       9.840       9.761       9.653       9.512       9.358       9.209       9.024       8.798    
        8.606       8.471       8.317       8.139       7.866       7.554       7.239       6.933       6.759       6.664    
        6.506       6.331       6.224       6.128       5.983       5.728       5.442       5.273       5.148       5.003    
        4.821       4.644       4.442       4.241       4.046       3.836       3.610       3.374       3.055       2.735    
        2.479       2.276       2.133       1.986       1.777       1.543       1.282      0.9285      0.4547       0.000    
  40    10.00       9.901       9.827       9.747       9.637       9.489       9.330       9.179       9.021       8.832    
        8.673       8.556       8.355       8.058       7.704       7.353       7.035       6.832       6.722       6.597    
        6.422       6.273       6.180       6.057       5.889       5.681       5.499       5.332       5.184       5.046    
        4.879       4.682       4.477       4.289       4.110       3.897       3.654       3.418       3.071       2.721    
        2.491       2.322       2.173       2.047       1.835       1.575       1.335      0.9647      0.4763       0.000    
  41    10.00       9.907       9.821       9.731       9.610       9.475       9.335       9.199       9.048       8.878    
        8.726       8.577       8.296       7.911       7.520       7.203       6.959       6.789       6.675       6.530    
        6.350       6.225       6.116       5.985       5.841       5.695       5.563       5.403       5.226       5.068    
        4.916       4.729       4.523       4.352       4.165       3.958       3.710       3.380       2.996       2.728    
        2.540       2.365       2.228       2.069       1.846       1.588       1.376       1.024      0.5243       0.000    
  42    10.00       9.910       9.813       9.730       9.624       9.498       9.358       9.206       9.069       8.937    
        8.751       8.476       8.120       7.723       7.371       7.131       6.920       6.762       6.626       6.452    
        6.287       6.170       6.058       5.966       5.847       5.742       5.619       5.434       5.244       5.104    
        4.971       4.769       4.548       4.388       4.229       3.996       3.677       3.283       2.942       2.738    
        2.589       2.440       2.271       2.064       1.832       1.625       1.411       1.066      0.5485       0.000    
  43    10.00       9.911       9.822       9.737       9.652       9.539       9.398       9.247       9.097       8.904    
        8.629       8.311       7.947       7.566       7.297       7.096       6.897       6.730       6.565       6.392    
        6.240       6.130       6.049       5.979       5.875       5.761       5.640       5.460       5.291       5.177    
        5.009       4.787       4.580       4.422       4.238       3.953       3.579       3.199       2.963       2.802    
        2.643       2.483       2.276       2.053       1.841       1.641       1.449       1.063      0.4787       0.000    
  44    10.00       9.905       9.824       9.749       9.656       9.569       9.449       9.263       9.057       8.786    
        8.507       8.173       7.775       7.499       7.293       7.070       6.853       6.660       6.481       6.327    
        6.220       6.134       6.059       5.987       5.897       5.781       5.639       5.497       5.367       5.223    
        5.061       4.861       4.627       4.404       4.189       3.898       3.508       3.180       2.991       2.835    
        2.683       2.506       2.298       2.100       1.878       1.656       1.405      0.9100      0.4021       0.000    
  45    10.00       9.905       9.838       9.752       9.664       9.586       9.409       9.195       8.951       8.684    
        8.449       8.048       7.681       7.475       7.262       7.018       6.772       6.575       6.418       6.309    
        6.233       6.158       6.080       5.993       5.896       5.790       5.672       5.552       5.445       5.297    
        5.103       4.890       4.652       4.384       4.139       3.823       3.457       3.199       3.043       2.887    
        2.691       2.486       2.304       2.124       1.931       1.692       1.267      0.7627      0.3863       0.000    
  46    10.00       9.921       9.849       9.759       9.661       9.513       9.325       9.147       8.924       8.663    
        8.325       7.956       7.661       7.404       7.187       6.945       6.699       6.546       6.429       6.329    
        6.259       6.189       6.097       5.993       5.898       5.804       5.707       5.600       5.493       5.357    
        5.177       4.954       4.690       4.386       4.045       3.706       3.440       3.264       3.091       2.912    
        2.686       2.472       2.291       2.146       1.939       1.605       1.136      0.7184      0.3650       0.000    
  47    10.00       9.939       9.872       9.777       9.607       9.428       9.267       9.115       8.915       8.589    
        8.223       7.881       7.597       7.381       7.149       6.881       6.670       6.533       6.441       6.359    
        6.283       6.202       6.110       6.009       5.914       5.833       5.748       5.642       5.519       5.384    
        5.224       5.025       4.685       4.283       3.963       3.714       3.483       3.332       3.173       2.923    
        2.654       2.429       2.261       2.143       1.883       1.485       1.054      0.6912      0.3548       0.000    
  48    10.00       9.946       9.875       9.732       9.561       9.412       9.241       9.087       8.874       8.529    
        8.132       7.822       7.592       7.334       7.063       6.824       6.664       6.532       6.442       6.382    
        6.306       6.208       6.107       6.019       5.944       5.875       5.794       5.677       5.531       5.373    
        5.208       4.981       4.629       4.299       4.019       3.772       3.555       3.385       3.179       2.880    
        2.595       2.415       2.275       2.054       1.707       1.351       1.006      0.6961      0.3745       0.000    
  49    10.00       9.943       9.841       9.714       9.574       9.400       9.228       9.055       8.791       8.426    
        8.083       7.794       7.516       7.272       7.063       6.838       6.633       6.512       6.454       6.395    
        6.324       6.213       6.101       6.028       5.966       5.912       5.820       5.679       5.513       5.363    
        5.190       4.912       4.614       4.393       4.137       3.847       3.585       3.378       3.142       2.823    
        2.593       2.435       2.225       1.894       1.585       1.294      0.9949      0.6960      0.3732       0.000    
  50    10.00       9.935       9.830       9.699       9.572       9.410       9.218       9.002       8.723       8.435    
        8.077       7.714       7.457       7.262       7.086       6.832       6.604       6.514       6.462       6.403    
        6.332       6.218       6.104       6.033       5.980       5.930       5.825       5.663       5.496       5.353    
        5.175       4.889       4.659       4.460       4.192       3.903       3.629       3.347       3.024       2.757    
        2.638       2.459       2.136       1.803       1.573       1.292       1.009      0.6816      0.3039       0.000    

 HEAD WILL BE SAVED ON UNIT   51 AT END OF TIME STEP  28, STRESS PERIOD    2

 DRAWDOWN WILL BE SAVED ON UNIT   52 AT END OF TIME STEP  28, STRESS PERIOD    2
1
  VOLUMETRIC BUDGET FOR ENTIRE MODEL AT END OF TIME STEP 28 IN STRESS PERIOD   2
  ------------------------------------------------------------------------------

     CUMULATIVE VOLUMES      L**3       RATES FOR THIS TIME STEP      L**3/T
     ------------------                 ------------------------

           IN:                                      IN:
           ---                                      ---
             STORAGE =       13961.9951               STORAGE =         493.7639
       CONSTANT HEAD =       17351.6680         CONSTANT HEAD =         602.9295
               WELLS =           0.0000                 WELLS =           0.0000

            TOTAL IN =       31313.6641              TOTAL IN =        1096.6934

          OUT:                                     OUT:
          ----                                     ----
             STORAGE =       9.4320E-03               STORAGE =           0.0000
       CONSTANT HEAD =       17313.6543         CONSTANT HEAD =         596.6938
               WELLS =       14000.0000                 WELLS =         500.0000

           TOTAL OUT =       31313.6641             TOTAL OUT =        1096.6938

            IN - OUT =           0.0000              IN - OUT =      -4.8828E-04

 PERCENT DISCREPANCY =           0.00     PERCENT DISCREPANCY =           0.00






          TIME SUMMARY AT END OF TIME STEP  28 IN STRESS PERIOD    2
                    SECONDS     MINUTES      HOURS       DAYS        YEARS
                    -----------------------------------------------------------
   TIME STEP LENGTH  86400.      1440.0      24.000      1.0000     2.73785E-03
 STRESS PERIOD TIME 2.41920E+06  40320.      672.00      28.000     7.66598E-02
         TOTAL TIME 2.50560E+06  41760.      696.00      29.000     7.93977E-02
1
 
 SOLVING FOR HEAD 

 OUTPUT CONTROL FOR STRESS PERIOD    2   TIME STEP  29
    SAVE HEAD FOR ALL LAYERS
    SAVE DRAWDOWN FOR ALL LAYERS
    SAVE BUDGET
    PRINT HEAD FOR ALL LAYERS
    PRINT BUDGET
 UBDSV1 SAVING "         STORAGE" ON UNIT  53 AT TIME STEP 29, STRESS PERIOD   2
 UBDSV2 SAVING "   CONSTANT HEAD" ON UNIT  53 AT TIME STEP 29, STRESS PERIOD   2
 UBDSV1 SAVING "FLOW RIGHT FACE " ON UNIT  53 AT TIME STEP 29, STRESS PERIOD   2
 UBDSV1 SAVING "FLOW FRONT FACE " ON UNIT  53 AT TIME STEP 29, STRESS PERIOD   2
1
              HEAD IN LAYER   1 AT END OF TIME STEP  29 IN STRESS PERIOD    2
  ---------------------------------------------------------------------------

            1           2           3           4           5           6           7           8           9          10
           11          12          13          14          15          16          17          18          19          20
           21          22          23          24          25          26          27          28          29          30
           31          32          33          34          35          36          37          38          39          40
           41          42          43          44          45          46          47          48          49          50
 ........................................................................................................................
   1    10.00       9.959       9.901       9.834       9.770       9.696       9.627       9.558       9.472       9.387    
        9.321       9.257       9.190       9.126       9.022       8.896       8.756       8.645       8.588       8.521    
        8.441       8.377       8.313       8.239       8.140       7.944       7.722       7.567       7.414       7.271    
        7.083       6.784       6.400       5.975       5.534       5.065       4.601       4.215       3.711       3.162    
        2.713       2.283       1.806       1.407       1.160      0.9516      0.7862      0.6664      0.4473       0.000    
   2    10.00       9.958       9.905       9.839       9.773       9.708       9.639       9.549       9.454       9.385    
        9.328       9.273       9.217       9.137       9.018       8.886       8.755       8.645       8.586       8.511    
        8.431       8.383       8.331       8.254       8.129       7.937       7.736       7.576       7.422       7.282    
        7.073       6.759       6.357       5.873       5.402       4.949       4.547       4.174       3.661       3.131    
        2.680       2.196       1.761       1.448       1.216       1.036      0.8310      0.6486      0.3618       0.000    
   3    10.00       9.953       9.900       9.841       9.783       9.717       9.629       9.534       9.467       9.404    
        9.341       9.290       9.241       9.164       9.042       8.880       8.736       8.648       8.579       8.503    
        8.437       8.387       8.334       8.231       8.095       7.925       7.751       7.625       7.446       7.262    
        7.000       6.629       6.171       5.703       5.284       4.861       4.467       4.067       3.535       3.045    
        2.657       2.211       1.812       1.524       1.294       1.108      0.8647      0.5797      0.2628       0.000    
   4    10.00       9.953       9.901       9.843       9.778       9.702       9.611       9.538       9.480       9.416    
        9.360       9.318       9.264       9.176       9.058       8.885       8.736       8.653       8.576       8.508    
        8.438       8.375       8.308       8.201       8.067       7.915       7.757       7.603       7.444       7.237    
        6.908       6.419       5.934       5.578       5.229       4.790       4.317       3.848       3.423       3.051    
        2.688       2.273       1.897       1.637       1.378       1.141      0.8402      0.5215      0.2498       0.000    
   5    10.00       9.949       9.897       9.832       9.767       9.696       9.614       9.551       9.491       9.431    
        9.383       9.341       9.270       9.168       9.038       8.881       8.754       8.663       8.587       8.496    
        8.412       8.345       8.264       8.159       8.039       7.884       7.728       7.585       7.425       7.174    
        6.706       6.161       5.773       5.493       5.147       4.671       4.182       3.756       3.436       3.099    
        2.742       2.359       1.986       1.744       1.465       1.123      0.7650      0.4652      0.2340       0.000    
   6    10.00       9.942       9.881       9.826       9.766       9.689       9.620       9.566       9.504       9.447    
        9.401       9.351       9.261       9.147       9.033       8.902       8.774       8.669       8.569       8.464    
        8.381       8.302       8.231       8.137       7.984       7.832       7.706       7.561       7.340       6.963    
        6.449       5.956       5.633       5.390       5.076       4.606       4.118       3.755       3.485       3.179    
        2.851       2.513       2.130       1.805       1.436       1.060      0.6759      0.4016      0.2211       0.000    
   7    10.00       9.931       9.871       9.821       9.759       9.694       9.633       9.582       9.524       9.468    
        9.412       9.337       9.239       9.131       9.023       8.920       8.787       8.646       8.530       8.427    
        8.340       8.264       8.202       8.085       7.930       7.801       7.673       7.481       7.131       6.651    
        6.159       5.759       5.537       5.319       4.956       4.516       4.186       3.833       3.536       3.334    
        3.022       2.659       2.208       1.745       1.332      0.9208      0.5825      0.4046      0.2083       0.000    
   8    10.00       9.930       9.876       9.819       9.757       9.700       9.646       9.594       9.541       9.488    
        9.414       9.319       9.222       9.120       9.021       8.905       8.740       8.591       8.497       8.398    
        8.300       8.235       8.145       8.021       7.886       7.751       7.538       7.242       6.806       6.385    
        6.013       5.699       5.493       5.244       4.856       4.491       4.193       3.932       3.699       3.466    
        3.161       2.704       2.151       1.657       1.227      0.8625      0.6169      0.3965      0.1901       0.000    
   9    10.00       9.942       9.876       9.813       9.767       9.720       9.666       9.611       9.553       9.496    
        9.411       9.303       9.198       9.096       8.990       8.855       8.695       8.558       8.456       8.356    
        8.268       8.184       8.064       7.946       7.823       7.659       7.356       6.959       6.552       6.243    
        5.935       5.671       5.444       5.131       4.771       4.463       4.235       4.040       3.831       3.576    
        3.209       2.711       2.147       1.655       1.236      0.8819      0.6227      0.4001      0.2046       0.000    
  10    10.00       9.939       9.870       9.819       9.776       9.731       9.682       9.635       9.567       9.484    
        9.381       9.269       9.169       9.074       8.965       8.800       8.632       8.514       8.419       8.324    
        8.242       8.128       7.995       7.863       7.720       7.489       7.106       6.693       6.341       6.092    
        5.891       5.663       5.391       5.073       4.732       4.470       4.292       4.122       3.896       3.604    
        3.185       2.668       2.153       1.732       1.339      0.9711      0.6423      0.4250      0.2284       0.000    
  11    10.00       9.926       9.870       9.828       9.786       9.747       9.703       9.638       9.546       9.452    
        9.350       9.240       9.148       9.035       8.888       8.731       8.592       8.487       8.400       8.304    
        8.183       8.039       7.863       7.712       7.480       7.160       6.831       6.521       6.221       6.031    
        5.874       5.590       5.289       5.025       4.761       4.553       4.367       4.150       3.872       3.519    
        3.126       2.726       2.230       1.815       1.440       1.075      0.7219      0.4175      0.1750       0.000    
  12    10.00       9.929       9.877       9.833       9.797       9.756       9.706       9.615       9.509       9.420    
        9.326       9.212       9.100       8.967       8.839       8.694       8.561       8.469       8.374       8.244    
        8.049       7.837       7.630       7.422       7.113       6.869       6.675       6.374       6.121       5.969    
        5.789       5.531       5.276       5.028       4.832       4.635       4.398       4.134       3.797       3.442    
        3.108       2.746       2.267       1.859       1.507       1.123      0.7599      0.3939      0.1307       0.000    
  13    10.00       9.942       9.894       9.847       9.804       9.757       9.677       9.573       9.474       9.383    
        9.278       9.167       9.052       8.915       8.774       8.638       8.541       8.429       8.306       8.058    
        7.768       7.543       7.314       7.038       6.799       6.675       6.459       6.193       6.048       5.906    
        5.692       5.462       5.259       5.067       4.896       4.713       4.431       4.073       3.748       3.413    
        3.093       2.718       2.205       1.825       1.522       1.115      0.6990      0.3404      0.1042       0.000    
  14    10.00       9.956       9.914       9.864       9.806       9.728       9.625       9.522       9.433       9.334    
        9.226       9.123       8.994       8.851       8.727       8.609       8.466       8.325       8.089       7.722    
        7.442       7.222       6.919       6.699       6.581       6.467       6.254       6.084       5.948       5.803    
        5.614       5.439       5.290       5.118       4.932       4.747       4.431       4.041       3.705       3.360    
        3.032       2.567       2.078       1.779       1.435       1.069      0.7008      0.3156      8.9863E-02   0.000    
  15    10.00       9.965       9.921       9.866       9.797       9.684       9.559       9.469       9.387       9.289    
        9.205       9.100       8.937       8.776       8.662       8.486       8.307       8.158       7.801       7.398    
        7.142       6.850       6.589       6.500       6.432       6.293       6.110       5.951       5.842       5.727    
        5.576       5.444       5.317       5.164       4.979       4.755       4.389       3.959       3.605       3.290    
        2.938       2.469       2.083       1.710       1.301      0.9784      0.6267      0.2896      9.7971E-02   0.000    
  16    10.00       9.971       9.924       9.857       9.756       9.623       9.511       9.440       9.367       9.270    
        9.170       9.018       8.818       8.663       8.503       8.302       8.180       7.887       7.383       7.026    
        6.795       6.540       6.440       6.384       6.267       6.091       5.946       5.861       5.797       5.695    
        5.566       5.444       5.338       5.186       4.964       4.667       4.252       3.882       3.600       3.265    
        2.858       2.396       1.981       1.576       1.225      0.8672      0.5627      0.2927      0.1045       0.000    
  17    10.00       9.967       9.911       9.822       9.708       9.571       9.472       9.411       9.325       9.224    
        9.049       8.840       8.672       8.515       8.311       8.110       7.861       7.393       6.964       6.734    
        6.549       6.406       6.334       6.215       6.038       5.911       5.863       5.827       5.764       5.658    
        5.543       5.435       5.323       5.175       4.868       4.481       4.160       3.915       3.641       3.238    
        2.722       2.271       1.886       1.507       1.099      0.7239      0.4800      0.2661      0.1108       0.000    
  18    10.00       9.953       9.882       9.779       9.630       9.515       9.447       9.356       9.253       9.104    
        8.884       8.710       8.553       8.318       8.052       7.775       7.423       7.008       6.740       6.560    
        6.416       6.291       6.177       6.018       5.892       5.848       5.826       5.794       5.720       5.619    
        5.519       5.411       5.269       5.043       4.730       4.416       4.160       3.960       3.617       3.124    
        2.627       2.155       1.768       1.412       1.021      0.6682      0.4059      0.2224      0.1038       0.000    
  19    10.00       9.938       9.856       9.706       9.559       9.492       9.407       9.290       9.166       8.998    
        8.803       8.632       8.384       8.049       7.770       7.494       7.112       6.767       6.593       6.475    
        6.323       6.166       6.038       5.902       5.832       5.807       5.780       5.731       5.652       5.566    
        5.472       5.354       5.170       4.936       4.677       4.408       4.187       3.931       3.448       2.964    
        2.571       2.089       1.669       1.322      0.9379      0.6024      0.3654      0.2111      0.1057       0.000    
  20    10.00       9.919       9.795       9.640       9.532       9.456       9.362       9.238       9.092       8.936    
        8.733       8.480       8.144       7.834       7.585       7.251       6.899       6.720       6.572       6.411    
        6.247       6.083       5.927       5.825       5.777       5.738       5.685       5.636       5.563       5.488    
        5.399       5.282       5.098       4.887       4.651       4.420       4.185       3.789       3.282       2.870    
        2.436       1.969       1.597       1.250      0.8921      0.5413      0.3173      0.2130      0.1076       0.000    
  21    10.00       9.873       9.745       9.619       9.507       9.422       9.319       9.162       9.014       8.863    
        8.601       8.281       7.964       7.707       7.437       7.116       6.862       6.705       6.536       6.360    
        6.161       5.975       5.837       5.733       5.656       5.589       5.547       5.504       5.431       5.374    
        5.308       5.189       5.030       4.844       4.632       4.408       4.077       3.676       3.234       2.744    
        2.307       1.869       1.548       1.229      0.7749      0.4568      0.3250      0.2371      0.1139       0.000    
  22    10.00       9.854       9.704       9.582       9.487       9.386       9.236       9.080       8.949       8.750    
        8.473       8.138       7.862       7.648       7.351       7.053       6.838       6.676       6.509       6.297    
        6.068       5.880       5.703       5.545       5.442       5.394       5.363       5.310       5.283       5.249    
        5.195       5.098       4.975       4.802       4.600       4.382       4.035       3.629       3.110       2.627    
        2.249       1.852       1.495       1.023      0.6367      0.4574      0.3436      0.2284      9.0639E-02   0.000    
  23    10.00       9.822       9.677       9.576       9.472       9.322       9.153       9.031       8.865       8.657    
        8.375       8.075       7.862       7.591       7.271       7.010       6.828       6.680       6.491       6.238    
        5.993       5.772       5.539       5.261       5.014       4.969       5.043       5.079       5.121       5.127    
        5.097       5.024       4.913       4.771       4.577       4.345       4.020       3.513       2.965       2.566    
        2.204       1.752       1.242      0.8335      0.6200      0.4687      0.3426      0.2172      0.1011       0.000    
  24    10.00       9.799       9.693       9.577       9.432       9.267       9.134       9.001       8.837       8.597    
        8.336       8.103       7.868       7.542       7.202       6.996       6.846       6.692       6.465       6.209    
        5.967       5.714       5.358       4.719       3.757       4.090       4.536       4.813       4.955       5.006    
        5.006       4.952       4.866       4.720       4.532       4.297       3.892       3.356       2.888       2.465    
        2.026       1.549       1.098      0.7935      0.6158      0.4653      0.3342      0.2531      0.1393       0.000    
  25    10.00       9.825       9.714       9.574       9.421       9.273       9.137       9.010       8.810       8.570    
        8.351       8.126       7.839       7.479       7.216       7.029       6.862       6.682       6.470       6.234    
        5.973       5.722       5.075       3.712      0.6071       3.141       4.099       4.575       4.819       4.921    
        4.936       4.901       4.812       4.640       4.441       4.157       3.738       3.223       2.799       2.342    
        1.835       1.386       1.019      0.7836      0.6397      0.4998      0.3650      0.2689      0.1755       0.000    
  26    10.00       9.850       9.746       9.595       9.438       9.308       9.166       9.006       8.800       8.614    
        8.425       8.126       7.762       7.456       7.264       7.097       6.900       6.666       6.441       6.239    
        6.039       5.764       5.172       4.189       3.151       3.672       4.230       4.575       4.781       4.884    
        4.891       4.853       4.743       4.574       4.381       4.073       3.525       3.051       2.697       2.139    
        1.592       1.222       1.007      0.8492      0.6964      0.5415      0.4013      0.2938      0.1754       0.000    
  27    10.00       9.883       9.757       9.628       9.487       9.337       9.196       9.041       8.856       8.678    
        8.424       8.070       7.755       7.506       7.338       7.150       6.892       6.635       6.453       6.293    
        6.127       5.847       5.406       4.869       4.300       4.328       4.526       4.705       4.831       4.881    
        4.868       4.818       4.711       4.540       4.280       3.801       3.286       2.918       2.376       1.833    
        1.444       1.204       1.048      0.9149      0.7740      0.5954      0.4285      0.3207      0.2155       0.000    
  28    10.00       9.894       9.787       9.664       9.536       9.394       9.248       9.091       8.917       8.709    
        8.397       8.075       7.802       7.564       7.391       7.200       6.980       6.731       6.492       6.335    
        6.188       5.989       5.699       5.304       4.950       4.793       4.806       4.885       4.908       4.905    
        4.861       4.792       4.664       4.426       4.044       3.548       3.117       2.618       2.088       1.731    
        1.449       1.253       1.099      0.9660      0.8212      0.6503      0.4852      0.3645      0.2222       0.000    
  29    10.00       9.899       9.797       9.705       9.582       9.451       9.311       9.153       8.968       8.689    
        8.381       8.100       7.840       7.644       7.444       7.238       7.038       6.840       6.613       6.412    
        6.256       6.090       5.892       5.653       5.334       5.161       5.094       5.059       5.026       4.947    
        4.853       4.722       4.560       4.237       3.788       3.350       2.909       2.412       2.012       1.755    
        1.526       1.310       1.141       1.012      0.8711      0.6960      0.5259      0.3849      0.2243       0.000    
  30    10.00       9.908       9.823       9.742       9.635       9.515       9.389       9.213       8.982       8.697    
        8.379       8.092       7.875       7.680       7.483       7.285       7.117       6.950       6.747       6.535    
        6.351       6.199       6.029       5.857       5.650       5.459       5.375       5.248       5.146       4.993    
        4.811       4.595       4.369       4.030       3.675       3.267       2.816       2.364       2.073       1.840    
        1.581       1.368       1.207       1.052      0.8934      0.7383      0.5600      0.4009      0.2422       0.000    
  31    10.00       9.923       9.850       9.774       9.696       9.601       9.463       9.255       8.986       8.690    
        8.383       8.115       7.909       7.709       7.534       7.350       7.178       7.050       6.855       6.652    
        6.477       6.319       6.169       6.005       5.862       5.711       5.563       5.411       5.223       5.002    
        4.728       4.460       4.229       3.969       3.620       3.199       2.774       2.405       2.173       1.962    
        1.694       1.449       1.259       1.096      0.9385      0.7743      0.5958      0.4280      0.2355       0.000    
  32    10.00       9.935       9.879       9.813       9.736       9.650       9.512       9.275       9.021       8.751    
        8.427       8.149       7.943       7.755       7.577       7.422       7.271       7.111       6.953       6.762    
        6.575       6.405       6.251       6.091       5.964       5.860       5.695       5.495       5.231       4.936    
        4.655       4.408       4.175       3.930       3.599       3.222       2.867       2.546       2.297       2.060    
        1.809       1.554       1.352       1.162      0.9809      0.8326      0.6498      0.4281      0.2125       0.000    
  33    10.00       9.944       9.898       9.844       9.770       9.671       9.495       9.264       9.052       8.801    
        8.485       8.209       7.995       7.789       7.622       7.492       7.359       7.200       7.026       6.845    
        6.652       6.468       6.284       6.134       6.033       5.929       5.734       5.466       5.192       4.922    
        4.655       4.438       4.209       3.907       3.597       3.258       2.955       2.697       2.437       2.176    
        1.943       1.701       1.479       1.279       1.079      0.9030      0.6978      0.4365      0.2056       0.000    
  34    10.00       9.949       9.918       9.871       9.779       9.641       9.471       9.300       9.082       8.809    
        8.528       8.258       8.028       7.821       7.673       7.571       7.430       7.268       7.075       6.902    
        6.721       6.503       6.321       6.184       6.079       5.934       5.699       5.463       5.188       4.893    
        4.670       4.487       4.274       3.977       3.664       3.358       3.078       2.845       2.579       2.317    
        2.095       1.872       1.637       1.433       1.221       1.014      0.7530      0.4836      0.2550       0.000    
  35    10.00       9.958       9.922       9.862       9.747       9.601       9.476       9.330       9.128       8.832    
        8.532       8.280       8.045       7.869       7.746       7.632       7.482       7.300       7.110       6.916    
        6.730       6.531       6.345       6.215       6.098       5.957       5.716       5.435       5.142       4.866    
        4.702       4.523       4.297       4.070       3.805       3.481       3.201       3.013       2.744       2.453    
        2.244       2.021       1.798       1.597       1.360       1.130      0.8673      0.5788      0.2892       0.000    
  36    10.00       9.955       9.904       9.836       9.721       9.582       9.469       9.332       9.127       8.849    
        8.534       8.259       8.083       7.946       7.830       7.686       7.504       7.322       7.114       6.860    
        6.661       6.500       6.343       6.229       6.119       5.947       5.684       5.395       5.097       4.856    
        4.702       4.548       4.343       4.130       3.904       3.610       3.332       3.127       2.891       2.579    
        2.344       2.119       1.891       1.726       1.497       1.242      0.9801      0.6788      0.3452       0.000    
  37    10.00       9.941       9.884       9.810       9.693       9.565       9.438       9.304       9.115       8.813    
        8.493       8.267       8.160       8.029       7.874       7.726       7.511       7.286       7.017       6.757    
        6.615       6.488       6.338       6.216       6.085       5.873       5.629       5.322       5.065       4.892    
        4.740       4.574       4.364       4.179       3.944       3.664       3.445       3.247       2.986       2.674    
        2.394       2.174       1.993       1.809       1.592       1.354       1.104      0.7661      0.4150       0.000    
  38    10.00       9.934       9.860       9.780       9.671       9.546       9.403       9.263       9.060       8.780    
        8.534       8.355       8.218       8.096       7.918       7.683       7.433       7.149       6.856       6.696    
        6.588       6.427       6.278       6.176       6.026       5.807       5.511       5.240       5.097       4.959    
        4.790       4.604       4.404       4.216       3.986       3.730       3.535       3.332       3.022       2.697    
        2.453       2.250       2.067       1.882       1.689       1.460       1.201      0.8764      0.4547       0.000    
  39    10.00       9.915       9.840       9.760       9.653       9.512       9.357       9.208       9.022       8.796    
        8.603       8.468       8.314       8.135       7.862       7.550       7.235       6.929       6.755       6.659    
        6.502       6.327       6.220       6.123       5.979       5.725       5.440       5.271       5.146       5.001    
        4.820       4.643       4.441       4.240       4.046       3.835       3.610       3.374       3.055       2.734    
        2.479       2.276       2.133       1.986       1.777       1.543       1.282      0.9285      0.4547       0.000    
  40    10.00       9.900       9.827       9.746       9.637       9.489       9.329       9.178       9.020       8.831    
        8.671       8.553       8.353       8.055       7.701       7.350       7.033       6.829       6.719       6.594    
        6.419       6.270       6.177       6.054       5.886       5.679       5.497       5.331       5.182       5.045    
        4.877       4.681       4.476       4.288       4.110       3.896       3.654       3.417       3.071       2.721    
        2.491       2.322       2.173       2.047       1.835       1.575       1.335      0.9647      0.4763       0.000    
  41    10.00       9.907       9.821       9.731       9.610       9.475       9.334       9.199       9.047       8.876    
        8.725       8.575       8.294       7.909       7.518       7.202       6.957       6.787       6.673       6.527    
        6.348       6.223       6.114       5.984       5.839       5.694       5.562       5.402       5.225       5.067    
        4.915       4.728       4.522       4.352       4.165       3.957       3.710       3.380       2.996       2.728    
        2.540       2.365       2.228       2.069       1.846       1.588       1.376       1.024      0.5243       0.000    
  42    10.00       9.910       9.813       9.730       9.624       9.498       9.357       9.205       9.068       8.936    
        8.749       8.475       8.119       7.721       7.370       7.129       6.919       6.760       6.624       6.450    
        6.286       6.168       6.057       5.965       5.846       5.741       5.617       5.433       5.244       5.103    
        4.971       4.769       4.548       4.388       4.228       3.995       3.677       3.283       2.942       2.738    
        2.589       2.440       2.270       2.064       1.832       1.625       1.411       1.066      0.5485       0.000    
  43    10.00       9.911       9.822       9.736       9.652       9.539       9.398       9.247       9.096       8.903    
        8.628       8.310       7.946       7.565       7.296       7.095       6.896       6.729       6.564       6.391    
        6.239       6.129       6.048       5.978       5.874       5.760       5.639       5.459       5.290       5.176    
        5.008       4.786       4.579       4.421       4.238       3.952       3.579       3.199       2.963       2.801    
        2.643       2.482       2.276       2.053       1.841       1.641       1.449       1.063      0.4787       0.000    
  44    10.00       9.905       9.823       9.749       9.656       9.569       9.448       9.262       9.057       8.786    
        8.506       8.172       7.775       7.499       7.292       7.069       6.852       6.659       6.480       6.327    
        6.219       6.133       6.059       5.986       5.896       5.780       5.638       5.496       5.366       5.222    
        5.061       4.861       4.627       4.404       4.188       3.897       3.508       3.180       2.991       2.835    
        2.683       2.506       2.298       2.100       1.878       1.656       1.405      0.9100      0.4021       0.000    
  45    10.00       9.905       9.838       9.752       9.664       9.585       9.408       9.195       8.951       8.684    
        8.449       8.048       7.680       7.474       7.262       7.018       6.771       6.574       6.418       6.309    
        6.232       6.157       6.079       5.993       5.896       5.790       5.671       5.551       5.444       5.296    
        5.103       4.889       4.652       4.383       4.139       3.823       3.457       3.199       3.043       2.887    
        2.691       2.485       2.304       2.124       1.931       1.692       1.267      0.7627      0.3863       0.000    
  46    10.00       9.921       9.849       9.759       9.661       9.512       9.325       9.147       8.924       8.663    
        8.324       7.956       7.661       7.404       7.186       6.945       6.698       6.545       6.428       6.329    
        6.258       6.188       6.096       5.992       5.897       5.803       5.706       5.600       5.493       5.357    
        5.176       4.953       4.690       4.386       4.045       3.706       3.440       3.264       3.091       2.912    
        2.686       2.472       2.291       2.146       1.939       1.605       1.136      0.7184      0.3650       0.000    
  47    10.00       9.939       9.872       9.777       9.607       9.428       9.267       9.115       8.915       8.588    
        8.223       7.881       7.597       7.381       7.148       6.881       6.669       6.533       6.440       6.358    
        6.283       6.201       6.110       6.008       5.914       5.833       5.747       5.642       5.518       5.383    
        5.224       5.025       4.685       4.283       3.963       3.713       3.482       3.332       3.173       2.923    
        2.654       2.429       2.261       2.143       1.883       1.485       1.054      0.6912      0.3548       0.000    
  48    10.00       9.946       9.875       9.732       9.561       9.412       9.241       9.087       8.874       8.529    
        8.131       7.821       7.591       7.334       7.063       6.823       6.664       6.531       6.442       6.381    
        6.306       6.208       6.107       6.019       5.943       5.875       5.793       5.676       5.530       5.373    
        5.208       4.980       4.628       4.298       4.019       3.771       3.555       3.384       3.179       2.880    
        2.595       2.415       2.275       2.054       1.707       1.351       1.006      0.6961      0.3745       0.000    
  49    10.00       9.943       9.841       9.714       9.574       9.400       9.228       9.055       8.790       8.426    
        8.083       7.793       7.516       7.271       7.063       6.838       6.632       6.512       6.453       6.394    
        6.323       6.213       6.101       6.028       5.966       5.912       5.820       5.678       5.513       5.362    
        5.189       4.911       4.614       4.393       4.137       3.846       3.585       3.378       3.141       2.823    
        2.593       2.435       2.225       1.894       1.585       1.294      0.9949      0.6960      0.3732       0.000    
  50    10.00       9.935       9.830       9.699       9.572       9.410       9.218       9.002       8.723       8.435    
        8.077       7.714       7.457       7.262       7.085       6.831       6.604       6.514       6.461       6.402    
        6.331       6.217       6.103       6.032       5.979       5.929       5.825       5.663       5.495       5.352    
        5.175       4.888       4.658       4.460       4.192       3.903       3.629       3.347       3.024       2.757    
        2.638       2.459       2.136       1.803       1.573       1.292       1.009      0.6816      0.3039       0.000    

 HEAD WILL BE SAVED ON UNIT   51 AT END OF TIME STEP  29, STRESS PERIOD    2

 DRAWDOWN WILL BE SAVED ON UNIT   52 AT END OF TIME STEP  29, STRESS PERIOD    2
1
  VOLUMETRIC BUDGET FOR ENTIRE MODEL AT END OF TIME STEP 29 IN STRESS PERIOD   2
  ------------------------------------------------------------------------------

     CUMULATIVE VOLUMES      L**3       RATES FOR THIS TIME STEP      L**3/T
     ------------------                 ------------------------

           IN:                                      IN:
           ---                                      ---
             STORAGE =       14454.9209               STORAGE =         492.9262
       CONSTANT HEAD =       17955.3594         CONSTANT HEAD =         603.6912
               WELLS =           0.0000                 WELLS =           0.0000

            TOTAL IN =       32410.2812              TOTAL IN =        1096.6174

          OUT:                                     OUT:
          ----                                     ----
             STORAGE =       9.4320E-03               STORAGE =           0.0000
       CONSTANT HEAD =       17910.2715         CONSTANT HEAD =         596.6173
               WELLS =       14500.0000                 WELLS =         500.0000

           TOTAL OUT =       32410.2812             TOTAL OUT =        1096.6173

            IN - OUT =           0.0000              IN - OUT =       1.2207E-04

 PERCENT DISCREPANCY =           0.00     PERCENT DISCREPANCY =           0.00






          TIME SUMMARY AT END OF TIME STEP  29 IN STRESS PERIOD    2
                    SECONDS     MINUTES      HOURS       DAYS        YEARS
                    -----------------------------------------------------------
   TIME STEP LENGTH  86400.      1440.0      24.000      1.0000     2.73785E-03
 STRESS PERIOD TIME 2.50560E+06  41760.      696.00      29.000     7.93977E-02
         TOTAL TIME 2.59200E+06  43200.      720.00      30.000     8.21355E-02
1
 
 SOLVING FOR HEAD 

 OUTPUT CONTROL FOR STRESS PERIOD    2   TIME STEP  30
    SAVE HEAD FOR ALL LAYERS
    SAVE DRAWDOWN FOR ALL LAYERS
    SAVE BUDGET
    PRINT HEAD FOR ALL LAYERS
    PRINT BUDGET
 UBDSV1 SAVING "         STORAGE" ON UNIT  53 AT TIME STEP 30, STRESS PERIOD   2
 UBDSV2 SAVING "   CONSTANT HEAD" ON UNIT  53 AT TIME STEP 30, STRESS PERIOD   2
 UBDSV1 SAVING "FLOW RIGHT FACE " ON UNIT  53 AT TIME STEP 30, STRESS PERIOD   2
 UBDSV1 SAVING "FLOW FRONT FACE " ON UNIT  53 AT TIME STEP 30, STRESS PERIOD   2
1
              HEAD IN LAYER   1 AT END OF TIME STEP  30 IN STRESS PERIOD    2
  ---------------------------------------------------------------------------

            1           2           3           4           5           6           7           8           9          10
           11          12          13          14          15          16          17          18          19          20
           21          22          23          24          25          26          27          28          29          30
           31          32          33          34          35          36          37          38          39          40
           41          42          43          44          45          46          47          48          49          50
 ........................................................................................................................
   1    10.00       9.959       9.901       9.834       9.770       9.696       9.626       9.558       9.471       9.386    
        9.320       9.256       9.189       9.125       9.020       8.894       8.754       8.643       8.586       8.519    
        8.439       8.374       8.311       8.236       8.137       7.942       7.720       7.565       7.412       7.269    
        7.082       6.782       6.399       5.974       5.533       5.064       4.600       4.214       3.710       3.162    
        2.712       2.283       1.806       1.406       1.160      0.9514      0.7860      0.6663      0.4472       0.000    
   2    10.00       9.958       9.905       9.838       9.773       9.708       9.639       9.548       9.453       9.384    
        9.327       9.272       9.216       9.136       9.016       8.885       8.753       8.643       8.584       8.509    
        8.429       8.380       8.329       8.252       8.126       7.935       7.734       7.574       7.420       7.280    
        7.071       6.758       6.356       5.872       5.401       4.948       4.546       4.173       3.660       3.131    
        2.680       2.196       1.761       1.447       1.215       1.036      0.8309      0.6485      0.3618       0.000    
   3    10.00       9.953       9.900       9.840       9.783       9.717       9.628       9.533       9.466       9.403    
        9.340       9.289       9.240       9.163       9.041       8.878       8.734       8.646       8.576       8.500    
        8.435       8.385       8.332       8.229       8.093       7.923       7.749       7.623       7.444       7.260    
        6.998       6.627       6.170       5.701       5.283       4.860       4.466       4.066       3.535       3.044    
        2.656       2.210       1.811       1.524       1.294       1.108      0.8645      0.5796      0.2628       0.000    
   4    10.00       9.953       9.901       9.843       9.778       9.701       9.610       9.538       9.480       9.415    
        9.359       9.317       9.262       9.175       9.056       8.884       8.734       8.651       8.573       8.505    
        8.435       8.373       8.306       8.199       8.064       7.913       7.755       7.600       7.442       7.234    
        6.906       6.417       5.933       5.577       5.227       4.789       4.316       3.847       3.422       3.050    
        2.687       2.273       1.897       1.637       1.378       1.141      0.8401      0.5215      0.2498       0.000    
   5    10.00       9.949       9.897       9.832       9.766       9.695       9.613       9.550       9.490       9.430    
        9.382       9.340       9.269       9.167       9.036       8.879       8.752       8.661       8.585       8.494    
        8.410       8.343       8.261       8.156       8.036       7.881       7.725       7.582       7.422       7.172    
        6.703       6.159       5.770       5.491       5.145       4.670       4.181       3.754       3.435       3.098    
        2.741       2.359       1.985       1.743       1.465       1.123      0.7649      0.4651      0.2339       0.000    
   6    10.00       9.942       9.880       9.826       9.766       9.689       9.620       9.566       9.503       9.446    
        9.400       9.350       9.260       9.146       9.031       8.900       8.772       8.667       8.566       8.462    
        8.378       8.299       8.228       8.134       7.981       7.829       7.703       7.558       7.337       6.960    
        6.446       5.953       5.629       5.387       5.074       4.604       4.116       3.754       3.483       3.178    
        2.850       2.512       2.129       1.805       1.436       1.060      0.6757      0.4015      0.2210       0.000    
   7    10.00       9.931       9.871       9.820       9.758       9.694       9.632       9.581       9.523       9.467    
        9.411       9.336       9.237       9.130       9.021       8.918       8.785       8.643       8.528       8.424    
        8.336       8.261       8.199       8.082       7.926       7.797       7.669       7.477       7.127       6.647    
        6.155       5.755       5.533       5.316       4.952       4.513       4.183       3.831       3.534       3.333    
        3.020       2.658       2.208       1.744       1.332      0.9206      0.5824      0.4046      0.2083       0.000    
   8    10.00       9.930       9.876       9.819       9.757       9.700       9.646       9.594       9.541       9.487    
        9.413       9.318       9.221       9.119       9.019       8.903       8.737       8.588       8.494       8.395    
        8.297       8.231       8.142       8.017       7.882       7.747       7.534       7.237       6.801       6.379    
        6.007       5.694       5.489       5.239       4.852       4.488       4.190       3.929       3.696       3.464    
        3.159       2.703       2.150       1.656       1.226      0.8623      0.6168      0.3964      0.1900       0.000    
   9    10.00       9.941       9.876       9.813       9.767       9.719       9.665       9.611       9.552       9.495    
        9.410       9.301       9.196       9.095       8.988       8.852       8.692       8.555       8.453       8.352    
        8.265       8.180       8.060       7.942       7.818       7.654       7.351       6.953       6.545       6.236    
        5.929       5.665       5.439       5.126       4.766       4.459       4.232       4.037       3.828       3.573    
        3.208       2.710       2.146       1.655       1.236      0.8818      0.6225      0.4001      0.2045       0.000    
  10    10.00       9.939       9.870       9.819       9.776       9.730       9.681       9.635       9.567       9.483    
        9.380       9.267       9.167       9.072       8.963       8.797       8.629       8.510       8.415       8.320    
        8.237       8.123       7.990       7.857       7.714       7.482       7.098       6.685       6.333       6.084    
        5.883       5.656       5.384       5.067       4.727       4.465       4.288       4.119       3.893       3.601    
        3.183       2.667       2.152       1.732       1.339      0.9709      0.6422      0.4250      0.2283       0.000    
  11    10.00       9.926       9.870       9.828       9.786       9.747       9.702       9.637       9.545       9.451    
        9.349       9.238       9.146       9.033       8.886       8.728       8.589       8.483       8.396       8.299    
        8.179       8.034       7.857       7.706       7.472       7.151       6.822       6.512       6.212       6.022    
        5.865       5.582       5.282       5.018       4.755       4.548       4.362       4.146       3.869       3.516    
        3.124       2.724       2.229       1.814       1.440       1.074      0.7218      0.4174      0.1750       0.000    
  12    10.00       9.928       9.877       9.832       9.797       9.756       9.705       9.615       9.508       9.419    
        9.324       9.210       9.098       8.965       8.835       8.690       8.556       8.464       8.369       8.238    
        8.043       7.829       7.622       7.412       7.103       6.858       6.664       6.363       6.110       5.958    
        5.780       5.522       5.268       5.021       4.826       4.629       4.393       4.130       3.794       3.440    
        3.106       2.745       2.266       1.858       1.506       1.123      0.7598      0.3939      0.1307       0.000    
  13    10.00       9.942       9.893       9.846       9.804       9.756       9.676       9.572       9.473       9.382    
        9.276       9.165       9.050       8.912       8.770       8.634       8.536       8.424       8.301       8.051    
        7.759       7.533       7.303       7.026       6.785       6.662       6.445       6.180       6.035       5.894    
        5.681       5.451       5.249       5.058       4.888       4.706       4.425       4.069       3.744       3.410    
        3.091       2.717       2.204       1.825       1.522       1.114      0.6988      0.3404      0.1042       0.000    
  14    10.00       9.956       9.914       9.864       9.806       9.727       9.624       9.521       9.432       9.332    
        9.224       9.121       8.991       8.848       8.723       8.604       8.461       8.319       8.081       7.712    
        7.430       7.209       6.904       6.684       6.566       6.452       6.239       6.069       5.933       5.789    
        5.601       5.427       5.279       5.108       4.923       4.740       4.425       4.036       3.701       3.357    
        3.030       2.565       2.077       1.778       1.434       1.069      0.7006      0.3155      8.9844E-02   0.000    
  15    10.00       9.964       9.921       9.866       9.797       9.684       9.559       9.468       9.385       9.287    
        9.203       9.097       8.933       8.771       8.657       8.480       8.300       8.149       7.790       7.385    
        7.127       6.834       6.571       6.483       6.415       6.276       6.093       5.934       5.826       5.711    
        5.561       5.431       5.305       5.153       4.970       4.747       4.382       3.954       3.601       3.287    
        2.936       2.467       2.082       1.709       1.301      0.9781      0.6266      0.2895      9.7946E-02   0.000    
  16    10.00       9.971       9.924       9.857       9.756       9.622       9.510       9.439       9.365       9.268    
        9.167       9.015       8.813       8.657       8.497       8.293       8.171       7.876       7.369       7.009    
        6.777       6.521       6.421       6.365       6.249       6.072       5.928       5.843       5.780       5.679    
        5.550       5.430       5.324       5.174       4.954       4.658       4.245       3.876       3.596       3.262    
        2.855       2.394       1.980       1.576       1.224      0.8669      0.5625      0.2927      0.1045       0.000    
  17    10.00       9.967       9.911       9.822       9.707       9.570       9.471       9.409       9.323       9.221    
        9.045       8.835       8.666       8.508       8.302       8.100       7.849       7.377       6.946       6.715    
        6.529       6.386       6.315       6.195       6.018       5.891       5.843       5.808       5.746       5.640    
        5.527       5.420       5.309       5.162       4.857       4.472       4.153       3.909       3.636       3.234    
        2.720       2.269       1.885       1.506       1.098      0.7237      0.4798      0.2660      0.1108       0.000    
  18    10.00       9.953       9.882       9.779       9.630       9.514       9.445       9.354       9.251       9.101    
        8.880       8.705       8.546       8.309       8.041       7.762       7.408       6.990       6.720       6.539    
        6.396       6.270       6.156       5.997       5.871       5.828       5.805       5.774       5.701       5.600    
        5.502       5.395       5.254       5.030       4.719       4.406       4.153       3.953       3.611       3.120    
        2.625       2.153       1.767       1.411       1.020      0.6679      0.4058      0.2223      0.1038       0.000    
  19    10.00       9.938       9.856       9.706       9.558       9.491       9.405       9.288       9.164       8.994    
        8.798       8.626       8.376       8.038       7.756       7.478       7.094       6.747       6.572       6.454    
        6.301       6.144       6.016       5.880       5.810       5.786       5.759       5.711       5.632       5.547    
        5.454       5.337       5.155       4.923       4.665       4.399       4.179       3.924       3.443       2.960    
        2.568       2.087       1.668       1.322      0.9375      0.6021      0.3653      0.2111      0.1056       0.000    
  20    10.00       9.919       9.794       9.639       9.531       9.455       9.360       9.235       9.088       8.931    
        8.727       8.472       8.133       7.821       7.569       7.234       6.880       6.699       6.551       6.390    
        6.226       6.061       5.905       5.803       5.755       5.716       5.663       5.614       5.542       5.467    
        5.379       5.264       5.081       4.872       4.639       4.409       4.176       3.782       3.277       2.866    
        2.434       1.967       1.596       1.249      0.8917      0.5411      0.3172      0.2130      0.1076       0.000    
  21    10.00       9.873       9.745       9.618       9.506       9.420       9.317       9.159       9.010       8.858    
        8.594       8.272       7.952       7.693       7.421       7.097       6.842       6.684       6.515       6.338    
        6.139       5.952       5.815       5.711       5.633       5.566       5.524       5.482       5.409       5.353    
        5.288       5.170       5.012       4.829       4.619       4.397       4.068       3.669       3.229       2.741    
        2.305       1.868       1.547       1.229      0.7746      0.4566      0.3249      0.2370      0.1139       0.000    
  22    10.00       9.854       9.704       9.581       9.486       9.384       9.233       9.077       8.944       8.744    
        8.465       8.127       7.849       7.633       7.334       7.034       6.818       6.655       6.487       6.275    
        6.045       5.857       5.680       5.522       5.419       5.371       5.340       5.287       5.260       5.226    
        5.173       5.078       4.957       4.785       4.586       4.370       4.026       3.623       3.105       2.624    
        2.247       1.850       1.494       1.023      0.6364      0.4572      0.3435      0.2283      9.0613E-02   0.000    
  23    10.00       9.822       9.676       9.575       9.471       9.320       9.150       9.027       8.860       8.651    
        8.366       8.064       7.849       7.576       7.253       6.991       6.808       6.659       6.469       6.215    
        5.970       5.749       5.515       5.237       4.990       4.945       5.019       5.055       5.097       5.104    
        5.074       5.003       4.894       4.754       4.562       4.333       4.010       3.506       2.960       2.563    
        2.202       1.751       1.241      0.8332      0.6198      0.4686      0.3425      0.2171      0.1011       0.000    
  24    10.00       9.798       9.693       9.576       9.430       9.264       9.131       8.997       8.832       8.590    
        8.326       8.092       7.855       7.526       7.184       6.976       6.826       6.671       6.443       6.187    
        5.944       5.690       5.334       4.695       3.731       4.064       4.510       4.788       4.931       4.982    
        4.983       4.930       4.847       4.702       4.517       4.285       3.883       3.350       2.884       2.463    
        2.024       1.548       1.098      0.7932      0.6156      0.4651      0.3341      0.2530      0.1393       0.000    
  25    10.00       9.824       9.713       9.573       9.419       9.271       9.134       9.006       8.804       8.563    
        8.341       8.115       7.825       7.463       7.198       7.010       6.843       6.661       6.448       6.212    
        5.950       5.698       5.050       3.686      0.5789       3.114       4.073       4.549       4.794       4.897    
        4.912       4.879       4.792       4.623       4.426       4.145       3.729       3.217       2.796       2.339    
        1.834       1.386       1.019      0.7833      0.6395      0.4996      0.3649      0.2688      0.1754       0.000    
  26    10.00       9.850       9.745       9.594       9.436       9.305       9.163       9.002       8.795       8.607    
        8.416       8.115       7.749       7.440       7.247       7.078       6.880       6.645       6.419       6.216    
        6.016       5.741       5.147       4.163       3.124       3.645       4.203       4.549       4.755       4.860    
        4.868       4.831       4.723       4.557       4.366       4.061       3.517       3.046       2.693       2.137    
        1.591       1.221       1.007      0.8489      0.6962      0.5413      0.4012      0.2937      0.1754       0.000    
  27    10.00       9.883       9.756       9.627       9.486       9.335       9.193       9.036       8.851       8.671    
        8.415       8.059       7.741       7.491       7.322       7.133       6.872       6.614       6.431       6.271    
        6.105       5.823       5.381       4.843       4.273       4.300       4.499       4.679       4.806       4.856    
        4.845       4.797       4.692       4.523       4.266       3.791       3.280       2.914       2.374       1.832    
        1.443       1.204       1.048      0.9146      0.7738      0.5953      0.4284      0.3206      0.2154       0.000    
  28    10.00       9.894       9.786       9.663       9.535       9.392       9.245       9.087       8.912       8.703    
        8.388       8.064       7.789       7.550       7.375       7.183       6.962       6.711       6.471       6.314    
        6.166       5.966       5.675       5.279       4.924       4.766       4.780       4.858       4.882       4.881    
        4.838       4.771       4.645       4.411       4.033       3.540       3.112       2.615       2.086       1.730    
        1.449       1.252       1.098      0.9657      0.8210      0.6501      0.4850      0.3644      0.2221       0.000    
  29    10.00       9.899       9.796       9.705       9.581       9.449       9.308       9.149       8.963       8.683    
        8.373       8.089       7.828       7.630       7.429       7.222       7.020       6.821       6.593       6.391    
        6.235       6.067       5.869       5.629       5.309       5.135       5.068       5.034       5.001       4.924    
        4.832       4.703       4.544       4.224       3.780       3.344       2.906       2.410       2.010       1.754    
        1.526       1.309       1.141       1.012      0.8709      0.6958      0.5258      0.3848      0.2243       0.000    
  30    10.00       9.908       9.823       9.742       9.634       9.513       9.387       9.210       8.977       8.691    
        8.371       8.082       7.864       7.668       7.468       7.269       7.101       6.932       6.729       6.515    
        6.330       6.177       6.006       5.834       5.627       5.435       5.351       5.224       5.123       4.973    
        4.793       4.580       4.357       4.021       3.668       3.262       2.813       2.362       2.072       1.839    
        1.580       1.368       1.206       1.052      0.8931      0.7381      0.5599      0.4008      0.2421       0.000    
  31    10.00       9.923       9.850       9.774       9.695       9.600       9.461       9.252       8.982       8.684    
        8.375       8.106       7.898       7.697       7.520       7.336       7.162       7.034       6.837       6.633    
        6.457       6.298       6.148       5.984       5.841       5.689       5.540       5.389       5.203       4.984    
        4.713       4.449       4.220       3.962       3.615       3.195       2.771       2.404       2.171       1.961    
        1.693       1.448       1.259       1.096      0.9383      0.7741      0.5957      0.4279      0.2355       0.000    
  32    10.00       9.935       9.879       9.812       9.735       9.649       9.511       9.272       9.018       8.746    
        8.420       8.141       7.933       7.744       7.565       7.409       7.257       7.096       6.936       6.744    
        6.557       6.386       6.232       6.072       5.944       5.840       5.675       5.476       5.215       4.922    
        4.644       4.399       4.168       3.924       3.594       3.219       2.865       2.544       2.296       2.059    
        1.809       1.553       1.352       1.161      0.9807      0.8324      0.6497      0.4280      0.2125       0.000    
  33    10.00       9.944       9.898       9.844       9.769       9.670       9.493       9.262       9.049       8.797    
        8.479       8.201       7.986       7.779       7.611       7.480       7.346       7.186       7.011       6.830    
        6.635       6.450       6.266       6.116       6.015       5.910       5.716       5.451       5.179       4.911    
        4.647       4.430       4.202       3.902       3.593       3.256       2.953       2.695       2.435       2.176    
        1.942       1.700       1.479       1.279       1.079      0.9029      0.6977      0.4365      0.2055       0.000    
  34    10.00       9.949       9.918       9.871       9.778       9.641       9.469       9.298       9.079       8.805    
        8.523       8.252       8.020       7.812       7.663       7.560       7.419       7.255       7.061       6.888    
        6.706       6.487       6.305       6.168       6.062       5.918       5.685       5.451       5.178       4.885    
        4.664       4.481       4.269       3.973       3.661       3.355       3.077       2.844       2.578       2.317    
        2.094       1.872       1.637       1.433       1.220       1.014      0.7529      0.4835      0.2550       0.000    
  35    10.00       9.958       9.922       9.862       9.746       9.600       9.475       9.329       9.126       8.829    
        8.528       8.274       8.039       7.861       7.737       7.623       7.472       7.289       7.098       6.904    
        6.718       6.518       6.332       6.201       6.085       5.944       5.705       5.425       5.135       4.860    
        4.697       4.518       4.294       4.068       3.803       3.480       3.200       3.012       2.744       2.453    
        2.244       2.021       1.798       1.597       1.360       1.130      0.8673      0.5788      0.2892       0.000    
  36    10.00       9.955       9.904       9.836       9.720       9.581       9.468       9.330       9.125       8.846    
        8.530       8.253       8.077       7.940       7.822       7.678       7.494       7.312       7.104       6.849    
        6.651       6.490       6.332       6.218       6.108       5.937       5.675       5.388       5.091       4.852    
        4.699       4.545       4.340       4.128       3.902       3.609       3.331       3.126       2.891       2.578    
        2.344       2.119       1.891       1.726       1.497       1.241      0.9801      0.6788      0.3452       0.000    
  37    10.00       9.941       9.884       9.809       9.692       9.564       9.437       9.302       9.113       8.811    
        8.489       8.263       8.155       8.023       7.867       7.718       7.504       7.278       7.009       6.749    
        6.607       6.479       6.330       6.207       6.076       5.865       5.623       5.317       5.061       4.889    
        4.737       4.572       4.362       4.177       3.943       3.663       3.445       3.246       2.985       2.674    
        2.394       2.174       1.993       1.808       1.592       1.354       1.104      0.7661      0.4150       0.000    
  38    10.00       9.934       9.860       9.780       9.671       9.545       9.402       9.262       9.059       8.778    
        8.531       8.351       8.214       8.091       7.912       7.677       7.427       7.143       6.850       6.690    
        6.581       6.420       6.271       6.169       6.020       5.801       5.507       5.237       5.094       4.957    
        4.788       4.602       4.402       4.215       3.985       3.730       3.535       3.332       3.022       2.696    
        2.453       2.250       2.067       1.882       1.689       1.460       1.201      0.8764      0.4547       0.000    
  39    10.00       9.915       9.840       9.760       9.653       9.511       9.357       9.207       9.021       8.794    
        8.601       8.465       8.310       8.131       7.857       7.546       7.231       6.925       6.751       6.655    
        6.497       6.322       6.215       6.119       5.975       5.721       5.438       5.269       5.144       4.999    
        4.818       4.641       4.439       4.239       4.045       3.834       3.609       3.373       3.054       2.734    
        2.479       2.276       2.133       1.986       1.777       1.543       1.282      0.9285      0.4547       0.000    
  40    10.00       9.900       9.827       9.746       9.637       9.488       9.329       9.177       9.019       8.829    
        8.669       8.551       8.350       8.052       7.698       7.347       7.030       6.826       6.716       6.591    
        6.415       6.266       6.173       6.051       5.884       5.677       5.496       5.329       5.181       5.044    
        4.876       4.680       4.475       4.288       4.109       3.896       3.653       3.417       3.070       2.721    
        2.490       2.322       2.173       2.047       1.835       1.575       1.335      0.9647      0.4763       0.000    
  41    10.00       9.907       9.821       9.731       9.610       9.474       9.334       9.198       9.045       8.875    
        8.723       8.573       8.292       7.908       7.516       7.200       6.955       6.785       6.670       6.525    
        6.346       6.220       6.112       5.982       5.838       5.693       5.560       5.401       5.223       5.066    
        4.914       4.727       4.521       4.351       4.164       3.957       3.709       3.380       2.996       2.727    
        2.540       2.365       2.228       2.069       1.846       1.588       1.376       1.024      0.5243       0.000    
  42    10.00       9.910       9.813       9.730       9.624       9.497       9.357       9.205       9.068       8.935    
        8.748       8.473       8.117       7.720       7.369       7.128       6.917       6.758       6.622       6.449    
        6.284       6.167       6.055       5.964       5.844       5.739       5.616       5.432       5.243       5.102    
        4.970       4.768       4.547       4.387       4.228       3.995       3.677       3.283       2.942       2.738    
        2.589       2.440       2.270       2.064       1.832       1.625       1.411       1.066      0.5485       0.000    
  43    10.00       9.911       9.822       9.736       9.652       9.538       9.397       9.246       9.095       8.902    
        8.627       8.309       7.946       7.564       7.295       7.094       6.895       6.727       6.563       6.390    
        6.238       6.128       6.047       5.977       5.873       5.759       5.638       5.458       5.289       5.175    
        5.008       4.786       4.579       4.421       4.237       3.952       3.579       3.199       2.963       2.801    
        2.643       2.482       2.276       2.053       1.841       1.641       1.449       1.063      0.4787       0.000    
  44    10.00       9.905       9.823       9.749       9.656       9.569       9.448       9.262       9.056       8.785    
        8.506       8.172       7.774       7.498       7.291       7.069       6.851       6.659       6.479       6.326    
        6.218       6.132       6.058       5.985       5.895       5.780       5.637       5.496       5.366       5.221    
        5.060       4.860       4.626       4.404       4.188       3.897       3.508       3.180       2.991       2.835    
        2.683       2.506       2.298       2.100       1.878       1.656       1.405      0.9100      0.4021       0.000    
  45    10.00       9.905       9.838       9.752       9.664       9.585       9.408       9.194       8.951       8.683    
        8.449       8.048       7.680       7.474       7.261       7.017       6.771       6.574       6.417       6.308    
        6.231       6.156       6.078       5.992       5.895       5.789       5.670       5.550       5.444       5.296    
        5.102       4.889       4.651       4.383       4.138       3.822       3.457       3.199       3.043       2.887    
        2.691       2.485       2.304       2.124       1.931       1.691       1.267      0.7627      0.3863       0.000    
  46    10.00       9.921       9.849       9.758       9.661       9.512       9.325       9.147       8.924       8.663    
        8.324       7.955       7.660       7.403       7.186       6.944       6.698       6.545       6.428       6.328    
        6.258       6.188       6.095       5.992       5.897       5.802       5.706       5.599       5.492       5.356    
        5.176       4.953       4.689       4.386       4.045       3.706       3.440       3.264       3.091       2.912    
        2.685       2.472       2.291       2.146       1.939       1.605       1.136      0.7184      0.3650       0.000    
  47    10.00       9.938       9.872       9.777       9.607       9.427       9.267       9.115       8.915       8.588    
        8.223       7.881       7.597       7.381       7.148       6.880       6.669       6.532       6.439       6.357    
        6.282       6.201       6.109       6.007       5.913       5.832       5.747       5.641       5.518       5.383    
        5.223       5.025       4.685       4.282       3.963       3.713       3.482       3.332       3.173       2.923    
        2.654       2.429       2.260       2.143       1.883       1.485       1.054      0.6912      0.3548       0.000    
  48    10.00       9.946       9.875       9.732       9.561       9.412       9.241       9.087       8.873       8.529    
        8.131       7.821       7.591       7.333       7.062       6.823       6.663       6.530       6.441       6.381    
        6.305       6.207       6.106       6.018       5.943       5.874       5.793       5.676       5.530       5.372    
        5.207       4.980       4.628       4.298       4.019       3.771       3.555       3.384       3.179       2.880    
        2.595       2.415       2.275       2.054       1.707       1.351       1.006      0.6960      0.3744       0.000    
  49    10.00       9.943       9.841       9.714       9.574       9.400       9.228       9.055       8.790       8.426    
        8.083       7.793       7.515       7.271       7.063       6.837       6.632       6.511       6.452       6.394    
        6.323       6.212       6.100       6.027       5.965       5.911       5.819       5.678       5.512       5.362    
        5.189       4.911       4.614       4.393       4.137       3.846       3.584       3.378       3.141       2.823    
        2.593       2.435       2.225       1.894       1.585       1.294      0.9949      0.6959      0.3732       0.000    
  50    10.00       9.935       9.830       9.699       9.572       9.410       9.217       9.002       8.723       8.435    
        8.077       7.714       7.456       7.261       7.085       6.831       6.603       6.513       6.461       6.402    
        6.331       6.216       6.102       6.031       5.979       5.929       5.824       5.662       5.495       5.352    
        5.174       4.888       4.658       4.460       4.192       3.903       3.629       3.347       3.024       2.757    
        2.638       2.459       2.136       1.803       1.573       1.292       1.009      0.6816      0.3039       0.000    

 HEAD WILL BE SAVED ON UNIT   51 AT END OF TIME STEP  30, STRESS PERIOD    2

 DRAWDOWN WILL BE SAVED ON UNIT   52 AT END OF TIME STEP  30, STRESS PERIOD    2
1
  VOLUMETRIC BUDGET FOR ENTIRE MODEL AT END OF TIME STEP 30 IN STRESS PERIOD   2
  ------------------------------------------------------------------------------

     CUMULATIVE VOLUMES      L**3       RATES FOR THIS TIME STEP      L**3/T
     ------------------                 ------------------------

           IN:                                      IN:
           ---                                      ---
             STORAGE =       14946.9492               STORAGE =         492.0287
       CONSTANT HEAD =       18559.8613         CONSTANT HEAD =         604.5016
               WELLS =           0.0000                 WELLS =           0.0000

            TOTAL IN =       33506.8125              TOTAL IN =        1096.5303

          OUT:                                     OUT:
          ----                                     ----
             STORAGE =       9.4320E-03               STORAGE =           0.0000
       CONSTANT HEAD =       18506.8027         CONSTANT HEAD =         596.5309
               WELLS =       15000.0000                 WELLS =         500.0000

           TOTAL OUT =       33506.8125             TOTAL OUT =        1096.5310

            IN - OUT =           0.0000              IN - OUT =      -7.3242E-04

 PERCENT DISCREPANCY =           0.00     PERCENT DISCREPANCY =           0.00






          TIME SUMMARY AT END OF TIME STEP  30 IN STRESS PERIOD    2
                    SECONDS     MINUTES      HOURS       DAYS        YEARS
                    -----------------------------------------------------------
   TIME STEP LENGTH  86400.      1440.0      24.000      1.0000     2.73785E-03
 STRESS PERIOD TIME 2.59200E+06  43200.      720.00      30.000     8.21355E-02
         TOTAL TIME 2.67840E+06  44640.      744.00      31.000     8.48734E-02
1
 
 SOLVING FOR HEAD 

 OUTPUT CONTROL FOR STRESS PERIOD    2   TIME STEP  31
    SAVE HEAD FOR ALL LAYERS
    SAVE DRAWDOWN FOR ALL LAYERS
    SAVE BUDGET
    PRINT HEAD FOR ALL LAYERS
    PRINT BUDGET
 UBDSV1 SAVING "         STORAGE" ON UNIT  53 AT TIME STEP 31, STRESS PERIOD   2
 UBDSV2 SAVING "   CONSTANT HEAD" ON UNIT  53 AT TIME STEP 31, STRESS PERIOD   2
 UBDSV1 SAVING "FLOW RIGHT FACE " ON UNIT  53 AT TIME STEP 31, STRESS PERIOD   2
 UBDSV1 SAVING "FLOW FRONT FACE " ON UNIT  53 AT TIME STEP 31, STRESS PERIOD   2
1
              HEAD IN LAYER   1 AT END OF TIME STEP  31 IN STRESS PERIOD    2
  ---------------------------------------------------------------------------

            1           2           3           4           5           6           7           8           9          10
           11          12          13          14          15          16          17          18          19          20
           21          22          23          24          25          26          27          28          29          30
           31          32          33          34          35          36          37          38          39          40
           41          42          43          44          45          46          47          48          49          50
 ........................................................................................................................
   1    10.00       9.959       9.901       9.834       9.769       9.696       9.626       9.557       9.470       9.385    
        9.319       9.255       9.188       9.124       9.019       8.893       8.752       8.641       8.584       8.517    
        8.436       8.372       8.308       8.234       8.135       7.939       7.718       7.563       7.410       7.267    
        7.080       6.780       6.398       5.972       5.532       5.063       4.600       4.213       3.710       3.162    
        2.712       2.282       1.805       1.406       1.160      0.9513      0.7859      0.6662      0.4471       0.000    
   2    10.00       9.958       9.905       9.838       9.772       9.707       9.638       9.548       9.453       9.383    
        9.326       9.270       9.215       9.135       9.015       8.883       8.751       8.641       8.582       8.507    
        8.427       8.378       8.327       8.250       8.124       7.933       7.732       7.572       7.418       7.278    
        7.069       6.756       6.354       5.871       5.400       4.947       4.545       4.172       3.660       3.130    
        2.679       2.196       1.761       1.447       1.215       1.036      0.8307      0.6484      0.3617       0.000    
   3    10.00       9.952       9.900       9.840       9.782       9.716       9.627       9.532       9.465       9.402    
        9.339       9.288       9.239       9.162       9.039       8.876       8.732       8.644       8.574       8.498    
        8.433       8.382       8.329       8.227       8.091       7.920       7.746       7.620       7.441       7.258    
        6.997       6.625       6.168       5.700       5.282       4.859       4.465       4.065       3.534       3.043    
        2.656       2.210       1.811       1.523       1.293       1.107      0.8644      0.5795      0.2627       0.000    
   4    10.00       9.952       9.901       9.843       9.777       9.701       9.610       9.537       9.479       9.414    
        9.358       9.316       9.261       9.174       9.055       8.882       8.732       8.649       8.571       8.503    
        8.433       8.370       8.303       8.196       8.062       7.910       7.752       7.598       7.440       7.232    
        6.904       6.415       5.931       5.575       5.226       4.788       4.315       3.846       3.421       3.050    
        2.687       2.272       1.896       1.636       1.377       1.140      0.8399      0.5214      0.2497       0.000    
   5    10.00       9.949       9.897       9.832       9.766       9.695       9.613       9.549       9.490       9.429    
        9.381       9.339       9.268       9.166       9.035       8.877       8.750       8.659       8.582       8.491    
        8.407       8.340       8.259       8.154       8.033       7.879       7.722       7.579       7.420       7.169    
        6.701       6.156       5.768       5.489       5.143       4.668       4.179       3.753       3.434       3.097    
        2.740       2.358       1.985       1.743       1.464       1.123      0.7647      0.4650      0.2339       0.000    
   6    10.00       9.942       9.880       9.826       9.766       9.688       9.619       9.565       9.502       9.445    
        9.399       9.349       9.259       9.144       9.030       8.898       8.770       8.665       8.564       8.459    
        8.375       8.296       8.225       8.131       7.978       7.826       7.699       7.555       7.334       6.957    
        6.442       5.949       5.626       5.384       5.071       4.602       4.114       3.752       3.482       3.176    
        2.849       2.511       2.129       1.804       1.436       1.060      0.6756      0.4014      0.2210       0.000    
   7    10.00       9.931       9.871       9.820       9.758       9.694       9.632       9.581       9.522       9.467    
        9.410       9.335       9.236       9.128       9.020       8.917       8.782       8.641       8.525       8.421    
        8.333       8.257       8.196       8.078       7.922       7.793       7.665       7.473       7.123       6.643    
        6.151       5.751       5.529       5.312       4.949       4.510       4.181       3.828       3.532       3.331    
        3.019       2.657       2.207       1.744       1.332      0.9204      0.5823      0.4045      0.2082       0.000    
   8    10.00       9.930       9.876       9.819       9.756       9.699       9.645       9.593       9.540       9.487    
        9.412       9.316       9.219       9.117       9.017       8.901       8.735       8.585       8.491       8.392    
        8.293       8.228       8.138       8.013       7.877       7.742       7.529       7.232       6.795       6.374    
        6.002       5.689       5.484       5.235       4.848       4.484       4.187       3.926       3.694       3.462    
        3.158       2.702       2.150       1.656       1.226      0.8621      0.6166      0.3964      0.1900       0.000    
   9    10.00       9.941       9.875       9.813       9.766       9.719       9.665       9.610       9.551       9.494    
        9.409       9.300       9.195       9.093       8.986       8.850       8.689       8.552       8.450       8.348    
        8.261       8.176       8.056       7.937       7.813       7.649       7.345       6.947       6.538       6.230    
        5.922       5.659       5.433       5.121       4.762       4.455       4.228       4.033       3.825       3.571    
        3.206       2.709       2.146       1.654       1.236      0.8816      0.6224      0.4000      0.2045       0.000    
  10    10.00       9.939       9.870       9.818       9.775       9.730       9.681       9.634       9.566       9.482    
        9.379       9.266       9.165       9.070       8.961       8.794       8.625       8.506       8.411       8.316    
        8.233       8.118       7.984       7.852       7.708       7.476       7.091       6.677       6.325       6.076    
        5.876       5.649       5.378       5.061       4.722       4.461       4.284       4.115       3.890       3.599    
        3.181       2.666       2.151       1.731       1.339      0.9707      0.6421      0.4249      0.2283       0.000    
  11    10.00       9.926       9.870       9.828       9.785       9.746       9.702       9.636       9.544       9.450    
        9.348       9.237       9.144       9.031       8.883       8.724       8.585       8.479       8.392       8.295    
        8.174       8.028       7.850       7.699       7.464       7.142       6.812       6.502       6.202       6.013    
        5.857       5.574       5.275       5.012       4.749       4.543       4.358       4.142       3.866       3.514    
        3.122       2.723       2.228       1.814       1.439       1.074      0.7216      0.4173      0.1750       0.000    
  12    10.00       9.928       9.877       9.832       9.796       9.756       9.705       9.614       9.507       9.418    
        9.323       9.208       9.095       8.962       8.832       8.687       8.552       8.460       8.365       8.233    
        8.036       7.822       7.613       7.403       7.092       6.847       6.652       6.352       6.099       5.948    
        5.770       5.512       5.259       5.013       4.819       4.623       4.388       4.126       3.790       3.437    
        3.104       2.743       2.265       1.858       1.506       1.123      0.7596      0.3938      0.1307       0.000    
  13    10.00       9.942       9.893       9.846       9.804       9.756       9.675       9.572       9.472       9.380    
        9.274       9.163       9.047       8.909       8.766       8.629       8.531       8.419       8.295       8.044    
        7.750       7.523       7.292       7.014       6.772       6.648       6.432       6.166       6.022       5.882    
        5.669       5.441       5.240       5.050       4.881       4.699       4.419       4.064       3.741       3.407    
        3.089       2.715       2.203       1.824       1.521       1.114      0.6987      0.3403      0.1041       0.000    
  14    10.00       9.955       9.913       9.864       9.805       9.727       9.623       9.520       9.430       9.331    
        9.222       9.118       8.988       8.844       8.719       8.599       8.455       8.312       8.073       7.702    
        7.418       7.196       6.890       6.668       6.550       6.436       6.223       6.054       5.918       5.775    
        5.588       5.415       5.268       5.098       4.914       4.732       4.418       4.031       3.697       3.354    
        3.027       2.563       2.076       1.777       1.434       1.068      0.7004      0.3154      8.9823E-02   0.000    
  15    10.00       9.964       9.921       9.866       9.796       9.683       9.557       9.467       9.383       9.285    
        9.201       9.095       8.929       8.767       8.652       8.474       8.292       8.141       7.779       7.371    
        7.112       6.818       6.554       6.466       6.398       6.259       6.076       5.918       5.810       5.696    
        5.547       5.417       5.293       5.142       4.960       4.738       4.375       3.949       3.597       3.283    
        2.933       2.466       2.081       1.708       1.300      0.9778      0.6264      0.2895      9.7919E-02   0.000    
  16    10.00       9.971       9.924       9.856       9.755       9.621       9.509       9.437       9.364       9.266    
        9.164       9.011       8.809       8.652       8.490       8.285       8.162       7.865       7.354       6.993    
        6.760       6.503       6.402       6.347       6.231       6.053       5.909       5.825       5.763       5.663    
        5.535       5.416       5.311       5.161       4.943       4.649       4.238       3.871       3.591       3.258    
        2.852       2.392       1.979       1.575       1.224      0.8666      0.5624      0.2926      0.1044       0.000    
  17    10.00       9.967       9.911       9.821       9.707       9.569       9.470       9.408       9.321       9.219    
        9.042       8.830       8.660       8.501       8.294       8.090       7.837       7.362       6.928       6.696    
        6.510       6.366       6.295       6.176       5.998       5.871       5.824       5.790       5.728       5.623    
        5.511       5.406       5.295       5.149       4.846       4.463       4.145       3.903       3.631       3.230    
        2.717       2.267       1.884       1.505       1.098      0.7234      0.4797      0.2659      0.1107       0.000    
  18    10.00       9.953       9.882       9.778       9.629       9.513       9.444       9.352       9.249       9.097    
        8.875       8.699       8.539       8.300       8.030       7.748       7.392       6.971       6.701       6.519    
        6.375       6.249       6.136       5.976       5.851       5.807       5.785       5.754       5.682       5.583    
        5.485       5.379       5.240       5.017       4.708       4.397       4.144       3.946       3.606       3.116    
        2.622       2.151       1.766       1.410       1.020      0.6676      0.4056      0.2223      0.1037       0.000    
  19    10.00       9.937       9.855       9.705       9.557       9.490       9.403       9.285       9.161       8.990    
        8.792       8.619       8.367       8.026       7.743       7.463       7.076       6.727       6.552       6.433    
        6.280       6.123       5.995       5.859       5.789       5.765       5.739       5.690       5.612       5.528    
        5.436       5.320       5.139       4.909       4.653       4.389       4.170       3.917       3.438       2.956    
        2.566       2.085       1.667       1.321      0.9370      0.6019      0.3651      0.2110      0.1056       0.000    
  20    10.00       9.919       9.794       9.639       9.530       9.454       9.358       9.233       9.085       8.927    
        8.721       8.464       8.122       7.808       7.554       7.216       6.860       6.679       6.531       6.368    
        6.204       6.040       5.883       5.781       5.734       5.694       5.642       5.593       5.521       5.447    
        5.360       5.246       5.065       4.858       4.626       4.398       4.167       3.775       3.272       2.863    
        2.431       1.966       1.595       1.249      0.8912      0.5409      0.3171      0.2129      0.1075       0.000    
  21    10.00       9.872       9.744       9.617       9.504       9.419       9.315       9.156       9.006       8.853    
        8.587       8.262       7.939       7.678       7.405       7.079       6.823       6.664       6.494       6.317    
        6.117       5.930       5.792       5.689       5.611       5.544       5.502       5.460       5.388       5.332    
        5.267       5.151       4.995       4.814       4.606       4.385       4.059       3.662       3.224       2.737    
        2.303       1.866       1.546       1.228      0.7742      0.4564      0.3248      0.2369      0.1138       0.000    
  22    10.00       9.854       9.703       9.580       9.485       9.382       9.231       9.073       8.940       8.738    
        8.457       8.116       7.836       7.618       7.317       7.015       6.798       6.635       6.466       6.253    
        6.023       5.834       5.657       5.499       5.396       5.348       5.317       5.264       5.237       5.204    
        5.152       5.058       4.939       4.769       4.572       4.358       4.017       3.615       3.101       2.621    
        2.245       1.849       1.493       1.022      0.6361      0.4570      0.3434      0.2282      9.0583E-02   0.000    
  23    10.00       9.822       9.675       9.573       9.469       9.317       9.147       9.023       8.855       8.644    
        8.357       8.052       7.835       7.560       7.235       6.972       6.788       6.638       6.448       6.193    
        5.948       5.726       5.492       5.214       4.966       4.921       4.995       5.031       5.073       5.081    
        5.053       4.983       4.875       4.737       4.548       4.321       4.000       3.499       2.956       2.560    
        2.200       1.750       1.240      0.8328      0.6195      0.4684      0.3424      0.2170      0.1010       0.000    
  24    10.00       9.798       9.692       9.575       9.428       9.262       9.127       8.992       8.826       8.583    
        8.317       8.080       7.842       7.511       7.166       6.957       6.806       6.651       6.422       6.165    
        5.921       5.667       5.310       4.671       3.706       4.039       4.485       4.764       4.907       4.959    
        4.961       4.909       4.827       4.685       4.502       4.272       3.873       3.344       2.880       2.460    
        2.022       1.547       1.097      0.7929      0.6154      0.4650      0.3340      0.2530      0.1392       0.000    
  25    10.00       9.824       9.712       9.571       9.417       9.268       9.130       9.002       8.798       8.555    
        8.332       8.104       7.812       7.448       7.181       6.991       6.823       6.640       6.427       6.190    
        5.927       5.675       5.026       3.661      0.5514       3.087       4.047       4.524       4.769       4.873    
        4.890       4.857       4.772       4.606       4.411       4.133       3.720       3.211       2.792       2.337    
        1.833       1.385       1.019      0.7831      0.6393      0.4995      0.3648      0.2687      0.1754       0.000    
  26    10.00       9.850       9.744       9.593       9.434       9.303       9.160       8.997       8.789       8.599    
        8.407       8.104       7.735       7.424       7.230       7.060       6.861       6.624       6.398       6.195    
        5.993       5.718       5.123       4.137       3.098       3.619       4.177       4.523       4.730       4.836    
        4.845       4.809       4.704       4.540       4.351       4.049       3.509       3.041       2.689       2.135    
        1.590       1.221       1.006      0.8486      0.6960      0.5412      0.4010      0.2937      0.1753       0.000    
  27    10.00       9.883       9.755       9.626       9.484       9.332       9.190       9.032       8.846       8.664    
        8.407       8.048       7.728       7.476       7.305       7.115       6.853       6.594       6.411       6.250    
        6.083       5.801       5.358       4.819       4.247       4.274       4.472       4.652       4.780       4.832    
        4.822       4.776       4.672       4.506       4.252       3.781       3.274       2.909       2.371       1.831    
        1.443       1.203       1.048      0.9143      0.7736      0.5951      0.4283      0.3205      0.2154       0.000    
  28    10.00       9.894       9.785       9.662       9.533       9.389       9.242       9.083       8.907       8.697    
        8.380       8.054       7.776       7.535       7.360       7.166       6.944       6.692       6.451       6.292    
        6.144       5.944       5.652       5.255       4.899       4.740       4.754       4.833       4.857       4.857    
        4.816       4.751       4.627       4.395       4.021       3.532       3.106       2.611       2.084       1.729    
        1.448       1.252       1.098      0.9653      0.8208      0.6499      0.4849      0.3643      0.2221       0.000    
  29    10.00       9.898       9.796       9.704       9.579       9.447       9.305       9.146       8.959       8.677    
        8.364       8.079       7.816       7.617       7.414       7.206       7.003       6.802       6.573       6.371    
        6.213       6.045       5.846       5.605       5.284       5.110       5.043       5.009       4.977       4.902    
        4.811       4.685       4.528       4.212       3.771       3.338       2.902       2.407       2.009       1.753    
        1.525       1.309       1.140       1.012      0.8706      0.6956      0.5256      0.3847      0.2242       0.000    
  30    10.00       9.907       9.822       9.741       9.633       9.511       9.385       9.207       8.973       8.685    
        8.363       8.072       7.852       7.655       7.454       7.254       7.085       6.915       6.710       6.495    
        6.309       6.156       5.984       5.811       5.603       5.411       5.327       5.200       5.101       4.952    
        4.774       4.565       4.344       4.012       3.661       3.257       2.810       2.360       2.071       1.838    
        1.579       1.367       1.206       1.051      0.8929      0.7379      0.5598      0.4007      0.2421       0.000    
  31    10.00       9.923       9.849       9.773       9.694       9.598       9.459       9.249       8.977       8.678    
        8.367       8.097       7.887       7.685       7.507       7.322       7.147       7.018       6.820       6.615    
        6.438       6.278       6.127       5.963       5.820       5.668       5.519       5.368       5.182       4.966    
        4.699       4.437       4.211       3.954       3.609       3.192       2.769       2.402       2.170       1.960    
        1.692       1.448       1.259       1.096      0.9380      0.7740      0.5955      0.4278      0.2354       0.000    
  32    10.00       9.935       9.878       9.811       9.735       9.648       9.509       9.269       9.014       8.741    
        8.413       8.132       7.923       7.733       7.552       7.396       7.243       7.081       6.920       6.727    
        6.539       6.367       6.212       6.052       5.925       5.820       5.655       5.457       5.198       4.909    
        4.633       4.390       4.160       3.918       3.590       3.216       2.862       2.543       2.295       2.058    
        1.808       1.553       1.351       1.161      0.9805      0.8323      0.6496      0.4280      0.2124       0.000    
  33    10.00       9.944       9.897       9.843       9.769       9.669       9.492       9.259       9.046       8.792    
        8.472       8.194       7.977       7.769       7.600       7.468       7.333       7.172       6.996       6.814    
        6.619       6.433       6.249       6.098       5.997       5.892       5.699       5.436       5.166       4.901    
        4.639       4.423       4.196       3.897       3.589       3.253       2.951       2.693       2.434       2.175    
        1.942       1.700       1.479       1.279       1.078      0.9028      0.6976      0.4364      0.2055       0.000    
  34    10.00       9.949       9.918       9.871       9.778       9.640       9.468       9.296       9.076       8.801    
        8.517       8.245       8.012       7.802       7.653       7.550       7.407       7.243       7.048       6.874    
        6.691       6.472       6.290       6.152       6.046       5.903       5.671       5.438       5.168       4.877    
        4.657       4.475       4.264       3.969       3.658       3.353       3.075       2.843       2.577       2.316    
        2.094       1.871       1.637       1.433       1.220       1.014      0.7529      0.4835      0.2549       0.000    
  35    10.00       9.958       9.922       9.862       9.746       9.599       9.473       9.327       9.123       8.825    
        8.523       8.268       8.032       7.853       7.728       7.613       7.462       7.278       7.087       6.891    
        6.705       6.505       6.319       6.188       6.072       5.931       5.693       5.416       5.127       4.854    
        4.692       4.514       4.290       4.065       3.800       3.478       3.199       3.011       2.743       2.452    
        2.243       2.021       1.798       1.597       1.360       1.130      0.8673      0.5788      0.2892       0.000    
  36    10.00       9.955       9.904       9.836       9.720       9.580       9.467       9.329       9.123       8.843    
        8.526       8.248       8.071       7.933       7.814       7.669       7.485       7.303       7.094       6.839    
        6.641       6.480       6.322       6.207       6.097       5.926       5.667       5.381       5.086       4.847    
        4.695       4.542       4.337       4.126       3.900       3.607       3.330       3.125       2.890       2.578    
        2.343       2.118       1.891       1.726       1.497       1.241      0.9800      0.6788      0.3452       0.000    
  37    10.00       9.940       9.884       9.809       9.692       9.564       9.436       9.301       9.111       8.808    
        8.486       8.258       8.150       8.017       7.860       7.711       7.496       7.270       7.001       6.741    
        6.599       6.471       6.321       6.199       6.067       5.858       5.616       5.313       5.058       4.886    
        4.735       4.569       4.360       4.176       3.942       3.662       3.444       3.246       2.985       2.674    
        2.393       2.174       1.993       1.808       1.591       1.354       1.104      0.7660      0.4150       0.000    
  38    10.00       9.934       9.859       9.779       9.671       9.545       9.402       9.261       9.057       8.775    
        8.528       8.347       8.209       8.086       7.907       7.671       7.421       7.137       6.844       6.684    
        6.575       6.414       6.265       6.163       6.014       5.796       5.503       5.234       5.092       4.954    
        4.786       4.600       4.400       4.213       3.984       3.729       3.534       3.331       3.021       2.696    
        2.453       2.250       2.066       1.882       1.689       1.460       1.201      0.8764      0.4547       0.000    
  39    10.00       9.915       9.840       9.760       9.652       9.511       9.356       9.206       9.020       8.792    
        8.598       8.462       8.306       8.126       7.853       7.541       7.227       6.921       6.747       6.650    
        6.493       6.318       6.211       6.115       5.971       5.718       5.436       5.267       5.142       4.997    
        4.816       4.640       4.438       4.238       4.044       3.834       3.609       3.373       3.054       2.734    
        2.479       2.276       2.133       1.986       1.777       1.543       1.282      0.9285      0.4547       0.000    
  40    10.00       9.900       9.827       9.746       9.637       9.488       9.328       9.176       9.018       8.827    
        8.667       8.548       8.347       8.049       7.695       7.344       7.027       6.823       6.713       6.588    
        6.412       6.263       6.170       6.048       5.881       5.675       5.494       5.327       5.179       5.042    
        4.875       4.679       4.474       4.287       4.108       3.895       3.653       3.417       3.070       2.721    
        2.490       2.321       2.173       2.047       1.835       1.575       1.335      0.9647      0.4763       0.000    
  41    10.00       9.907       9.820       9.731       9.609       9.474       9.333       9.197       9.044       8.874    
        8.721       8.571       8.290       7.906       7.514       7.198       6.953       6.783       6.668       6.522    
        6.344       6.218       6.110       5.980       5.836       5.691       5.559       5.399       5.222       5.064    
        4.913       4.727       4.521       4.350       4.163       3.956       3.709       3.379       2.995       2.727    
        2.540       2.365       2.228       2.069       1.846       1.588       1.376       1.024      0.5243       0.000    
  42    10.00       9.910       9.813       9.730       9.624       9.497       9.356       9.204       9.067       8.934    
        8.747       8.472       8.116       7.719       7.368       7.127       6.916       6.757       6.621       6.447    
        6.282       6.165       6.054       5.963       5.843       5.738       5.615       5.431       5.242       5.101    
        4.969       4.767       4.546       4.387       4.227       3.994       3.676       3.282       2.942       2.738    
        2.589       2.440       2.270       2.064       1.832       1.625       1.411       1.066      0.5485       0.000    
  43    10.00       9.911       9.822       9.736       9.651       9.538       9.397       9.246       9.095       8.902    
        8.626       8.308       7.945       7.563       7.294       7.093       6.893       6.726       6.561       6.388    
        6.236       6.126       6.046       5.976       5.872       5.758       5.637       5.457       5.288       5.174    
        5.007       4.785       4.578       4.420       4.237       3.952       3.578       3.199       2.962       2.801    
        2.643       2.482       2.276       2.053       1.841       1.641       1.449       1.063      0.4787       0.000    
  44    10.00       9.905       9.823       9.749       9.655       9.568       9.448       9.262       9.056       8.784    
        8.505       8.171       7.774       7.498       7.291       7.068       6.850       6.658       6.478       6.325    
        6.217       6.131       6.057       5.984       5.894       5.779       5.637       5.495       5.365       5.221    
        5.060       4.859       4.625       4.403       4.187       3.897       3.507       3.179       2.990       2.835    
        2.683       2.505       2.298       2.100       1.878       1.656       1.405      0.9100      0.4021       0.000    
  45    10.00       9.905       9.838       9.752       9.663       9.585       9.408       9.194       8.950       8.683    
        8.448       8.047       7.679       7.473       7.261       7.016       6.770       6.573       6.416       6.307    
        6.231       6.155       6.077       5.991       5.894       5.788       5.669       5.550       5.443       5.295    
        5.102       4.888       4.651       4.382       4.138       3.822       3.456       3.199       3.043       2.887    
        2.690       2.485       2.304       2.124       1.931       1.691       1.267      0.7627      0.3863       0.000    
  46    10.00       9.921       9.849       9.758       9.660       9.512       9.324       9.147       8.924       8.662    
        8.324       7.955       7.660       7.403       7.185       6.944       6.697       6.544       6.427       6.327    
        6.257       6.187       6.094       5.991       5.896       5.802       5.705       5.599       5.492       5.355    
        5.175       4.952       4.689       4.385       4.045       3.706       3.440       3.264       3.091       2.911    
        2.685       2.471       2.291       2.146       1.939       1.605       1.136      0.7184      0.3650       0.000    
  47    10.00       9.938       9.872       9.776       9.607       9.427       9.267       9.115       8.915       8.588    
        8.223       7.880       7.596       7.380       7.147       6.880       6.668       6.532       6.439       6.357    
        6.281       6.200       6.108       6.007       5.912       5.831       5.746       5.640       5.517       5.382    
        5.223       5.024       4.684       4.282       3.962       3.713       3.482       3.332       3.173       2.923    
        2.653       2.429       2.260       2.143       1.883       1.484       1.054      0.6912      0.3548       0.000    
  48    10.00       9.946       9.875       9.732       9.561       9.412       9.241       9.087       8.873       8.529    
        8.131       7.821       7.591       7.333       7.062       6.822       6.663       6.530       6.441       6.380    
        6.304       6.206       6.106       6.017       5.942       5.873       5.792       5.675       5.529       5.372    
        5.207       4.979       4.628       4.298       4.019       3.771       3.555       3.384       3.179       2.880    
        2.595       2.415       2.275       2.054       1.707       1.351       1.006      0.6960      0.3744       0.000    
  49    10.00       9.943       9.841       9.714       9.573       9.400       9.228       9.055       8.790       8.425    
        8.083       7.793       7.515       7.271       7.062       6.837       6.631       6.511       6.452       6.393    
        6.322       6.211       6.100       6.027       5.964       5.910       5.819       5.677       5.512       5.361    
        5.189       4.911       4.613       4.393       4.136       3.846       3.584       3.378       3.141       2.822    
        2.593       2.435       2.225       1.894       1.585       1.294      0.9948      0.6959      0.3732       0.000    
  50    10.00       9.935       9.830       9.699       9.572       9.410       9.217       9.001       8.723       8.434    
        8.076       7.713       7.456       7.261       7.085       6.830       6.603       6.513       6.460       6.401    
        6.330       6.216       6.102       6.031       5.978       5.928       5.824       5.662       5.494       5.351    
        5.174       4.888       4.658       4.460       4.191       3.903       3.629       3.346       3.024       2.757    
        2.638       2.459       2.136       1.803       1.573       1.292       1.009      0.6816      0.3039       0.000    

 HEAD WILL BE SAVED ON UNIT   51 AT END OF TIME STEP  31, STRESS PERIOD    2

 DRAWDOWN WILL BE SAVED ON UNIT   52 AT END OF TIME STEP  31, STRESS PERIOD    2
1
  VOLUMETRIC BUDGET FOR ENTIRE MODEL AT END OF TIME STEP 31 IN STRESS PERIOD   2
  ------------------------------------------------------------------------------

     CUMULATIVE VOLUMES      L**3       RATES FOR THIS TIME STEP      L**3/T
     ------------------                 ------------------------

           IN:                                      IN:
           ---                                      ---
             STORAGE =       15438.0244               STORAGE =         491.0747
       CONSTANT HEAD =       19165.2207         CONSTANT HEAD =         605.3599
               WELLS =           0.0000                 WELLS =           0.0000

            TOTAL IN =       34603.2461              TOTAL IN =        1096.4346

          OUT:                                     OUT:
          ----                                     ----
             STORAGE =       9.4320E-03               STORAGE =           0.0000
       CONSTANT HEAD =       19103.2363         CONSTANT HEAD =         596.4343
               WELLS =       15500.0000                 WELLS =         500.0000

           TOTAL OUT =       34603.2461             TOTAL OUT =        1096.4343

            IN - OUT =           0.0000              IN - OUT =       2.4414E-04

 PERCENT DISCREPANCY =           0.00     PERCENT DISCREPANCY =           0.00






          TIME SUMMARY AT END OF TIME STEP  31 IN STRESS PERIOD    2
                    SECONDS     MINUTES      HOURS       DAYS        YEARS
                    -----------------------------------------------------------
   TIME STEP LENGTH  86400.      1440.0      24.000      1.0000     2.73785E-03
 STRESS PERIOD TIME 2.67840E+06  44640.      744.00      31.000     8.48734E-02
         TOTAL TIME 2.76480E+06  46080.      768.00      32.000     8.76112E-02
1
 
 SOLVING FOR HEAD 

 OUTPUT CONTROL FOR STRESS PERIOD    2   TIME STEP  32
    SAVE HEAD FOR ALL LAYERS
    SAVE DRAWDOWN FOR ALL LAYERS
    SAVE BUDGET
    PRINT HEAD FOR ALL LAYERS
    PRINT BUDGET
 UBDSV1 SAVING "         STORAGE" ON UNIT  53 AT TIME STEP 32, STRESS PERIOD   2
 UBDSV2 SAVING "   CONSTANT HEAD" ON UNIT  53 AT TIME STEP 32, STRESS PERIOD   2
 UBDSV1 SAVING "FLOW RIGHT FACE " ON UNIT  53 AT TIME STEP 32, STRESS PERIOD   2
 UBDSV1 SAVING "FLOW FRONT FACE " ON UNIT  53 AT TIME STEP 32, STRESS PERIOD   2
1
              HEAD IN LAYER   1 AT END OF TIME STEP  32 IN STRESS PERIOD    2
  ---------------------------------------------------------------------------

            1           2           3           4           5           6           7           8           9          10
           11          12          13          14          15          16          17          18          19          20
           21          22          23          24          25          26          27          28          29          30
           31          32          33          34          35          36          37          38          39          40
           41          42          43          44          45          46          47          48          49          50
 ........................................................................................................................
   1    10.00       9.959       9.900       9.834       9.769       9.695       9.625       9.556       9.469       9.384    
        9.318       9.253       9.187       9.122       9.017       8.891       8.750       8.639       8.581       8.514    
        8.434       8.370       8.306       8.232       8.133       7.937       7.716       7.561       7.408       7.265    
        7.078       6.779       6.396       5.971       5.531       5.062       4.599       4.213       3.709       3.161    
        2.712       2.282       1.805       1.406       1.160      0.9511      0.7858      0.6661      0.4471       0.000    
   2    10.00       9.958       9.905       9.838       9.772       9.707       9.638       9.547       9.452       9.382    
        9.325       9.269       9.214       9.133       9.013       8.881       8.749       8.639       8.580       8.505    
        8.424       8.376       8.324       8.247       8.122       7.930       7.730       7.570       7.415       7.276    
        7.067       6.754       6.353       5.869       5.399       4.946       4.545       4.172       3.659       3.130    
        2.679       2.195       1.760       1.447       1.215       1.036      0.8306      0.6483      0.3617       0.000    
   3    10.00       9.952       9.899       9.840       9.782       9.716       9.627       9.532       9.464       9.401    
        9.338       9.287       9.238       9.160       9.038       8.875       8.730       8.641       8.572       8.496    
        8.430       8.380       8.327       8.224       8.088       7.918       7.744       7.618       7.439       7.256    
        6.995       6.624       6.167       5.699       5.281       4.858       4.464       4.064       3.533       3.042    
        2.655       2.209       1.811       1.523       1.293       1.107      0.8642      0.5794      0.2627       0.000    
   4    10.00       9.952       9.900       9.843       9.777       9.700       9.609       9.536       9.478       9.413    
        9.357       9.315       9.260       9.173       9.053       8.880       8.730       8.646       8.569       8.501    
        8.430       8.368       8.301       8.193       8.059       7.907       7.749       7.595       7.437       7.230    
        6.902       6.413       5.929       5.573       5.224       4.786       4.313       3.845       3.420       3.049    
        2.686       2.271       1.896       1.636       1.377       1.140      0.8398      0.5213      0.2497       0.000    
   5    10.00       9.949       9.897       9.831       9.765       9.694       9.612       9.549       9.489       9.428    
        9.380       9.338       9.267       9.164       9.033       8.875       8.748       8.657       8.580       8.489    
        8.405       8.337       8.256       8.151       8.031       7.875       7.719       7.576       7.417       7.167    
        6.698       6.153       5.765       5.486       5.141       4.666       4.178       3.752       3.432       3.096    
        2.739       2.357       1.984       1.742       1.464       1.123      0.7646      0.4649      0.2338       0.000    
   6    10.00       9.942       9.880       9.826       9.765       9.688       9.618       9.564       9.501       9.444    
        9.398       9.348       9.258       9.143       9.028       8.896       8.767       8.662       8.561       8.456    
        8.372       8.293       8.222       8.127       7.974       7.822       7.696       7.551       7.331       6.953    
        6.439       5.946       5.623       5.380       5.068       4.599       4.112       3.750       3.480       3.175    
        2.847       2.510       2.128       1.804       1.435       1.059      0.6755      0.4014      0.2209       0.000    
   7    10.00       9.931       9.870       9.820       9.757       9.693       9.631       9.580       9.522       9.466    
        9.409       9.333       9.235       9.127       9.018       8.915       8.780       8.638       8.522       8.418    
        8.330       8.254       8.192       8.075       7.919       7.790       7.662       7.469       7.119       6.639    
        6.146       5.746       5.525       5.308       4.945       4.507       4.178       3.826       3.530       3.329    
        3.018       2.656       2.206       1.743       1.331      0.9202      0.5822      0.4044      0.2082       0.000    
   8    10.00       9.930       9.876       9.818       9.756       9.699       9.644       9.592       9.539       9.486    
        9.411       9.315       9.218       9.115       9.015       8.899       8.732       8.583       8.488       8.388    
        8.290       8.224       8.134       8.009       7.873       7.738       7.525       7.227       6.790       6.368    
        5.997       5.684       5.479       5.231       4.844       4.481       4.183       3.923       3.691       3.460    
        3.156       2.701       2.149       1.655       1.226      0.8619      0.6165      0.3963      0.1900       0.000    
   9    10.00       9.941       9.875       9.812       9.766       9.718       9.664       9.609       9.550       9.493    
        9.408       9.299       9.193       9.091       8.984       8.847       8.686       8.549       8.446       8.344    
        8.257       8.172       8.051       7.932       7.808       7.644       7.339       6.941       6.531       6.223    
        5.916       5.653       5.428       5.116       4.757       4.451       4.224       4.030       3.822       3.569    
        3.204       2.707       2.145       1.654       1.235      0.8813      0.6223      0.3999      0.2044       0.000    
  10    10.00       9.939       9.869       9.818       9.775       9.729       9.680       9.633       9.565       9.481    
        9.378       9.264       9.163       9.068       8.958       8.791       8.622       8.502       8.407       8.312    
        8.229       8.114       7.979       7.846       7.703       7.469       7.083       6.669       6.317       6.068    
        5.868       5.642       5.371       5.055       4.717       4.456       4.280       4.111       3.887       3.596    
        3.179       2.664       2.150       1.730       1.338      0.9704      0.6419      0.4248      0.2283       0.000    
  11    10.00       9.926       9.870       9.827       9.785       9.746       9.701       9.636       9.543       9.449    
        9.346       9.235       9.142       9.028       8.880       8.721       8.581       8.475       8.387       8.290    
        8.169       8.023       7.844       7.692       7.456       7.133       6.803       6.493       6.193       6.003    
        5.848       5.566       5.267       5.005       4.742       4.537       4.353       4.138       3.862       3.511    
        3.120       2.721       2.227       1.813       1.439       1.074      0.7215      0.4172      0.1749       0.000    
  12    10.00       9.928       9.876       9.832       9.796       9.755       9.704       9.613       9.506       9.417    
        9.321       9.206       9.093       8.959       8.829       8.683       8.548       8.455       8.360       8.228    
        8.030       7.815       7.605       7.394       7.081       6.835       6.641       6.340       6.088       5.938    
        5.760       5.503       5.251       5.005       4.812       4.617       4.383       4.121       3.787       3.434    
        3.102       2.741       2.264       1.857       1.505       1.122      0.7594      0.3937      0.1306       0.000    
  13    10.00       9.942       9.893       9.846       9.803       9.755       9.675       9.571       9.470       9.379    
        9.272       9.161       9.044       8.905       8.762       8.625       8.526       8.414       8.289       8.036    
        7.741       7.513       7.281       7.001       6.759       6.635       6.419       6.153       6.009       5.870    
        5.658       5.430       5.230       5.041       4.873       4.692       4.414       4.060       3.737       3.404    
        3.086       2.713       2.201       1.823       1.520       1.114      0.6985      0.3402      0.1041       0.000    
  14    10.00       9.955       9.913       9.863       9.805       9.726       9.622       9.519       9.429       9.329    
        9.220       9.115       8.984       8.840       8.714       8.594       8.449       8.306       8.065       7.691    
        7.406       7.183       6.876       6.653       6.535       6.421       6.208       6.039       5.904       5.761    
        5.575       5.403       5.256       5.088       4.906       4.724       4.412       4.026       3.693       3.351    
        3.025       2.562       2.075       1.777       1.433       1.068      0.7002      0.3153      8.9799E-02   0.000    
  15    10.00       9.964       9.921       9.866       9.796       9.682       9.556       9.465       9.382       9.283    
        9.198       9.092       8.926       8.762       8.647       8.467       8.285       8.133       7.769       7.358    
        7.098       6.802       6.537       6.449       6.381       6.242       6.059       5.901       5.794       5.681    
        5.533       5.404       5.280       5.131       4.950       4.730       4.368       3.943       3.593       3.280    
        2.931       2.464       2.079       1.708       1.300      0.9774      0.6261      0.2894      9.7889E-02   0.000    
  16    10.00       9.971       9.924       9.856       9.755       9.620       9.508       9.436       9.362       9.264    
        9.162       9.008       8.804       8.646       8.483       8.277       8.154       7.854       7.340       6.977    
        6.743       6.485       6.384       6.329       6.213       6.035       5.891       5.807       5.746       5.647    
        5.520       5.402       5.298       5.149       4.933       4.640       4.231       3.865       3.586       3.254    
        2.850       2.390       1.977       1.574       1.223      0.8662      0.5621      0.2925      0.1044       0.000    
  17    10.00       9.967       9.911       9.821       9.706       9.567       9.468       9.406       9.319       9.216    
        9.038       8.825       8.654       8.494       8.285       8.080       7.825       7.347       6.910       6.678    
        6.491       6.347       6.276       6.157       5.979       5.851       5.805       5.771       5.710       5.607    
        5.496       5.391       5.281       5.136       4.835       4.454       4.137       3.896       3.626       3.226    
        2.714       2.265       1.883       1.504       1.097      0.7231      0.4795      0.2658      0.1107       0.000    
  18    10.00       9.953       9.882       9.778       9.628       9.512       9.442       9.350       9.246       9.094    
        8.870       8.692       8.532       8.291       8.019       7.735       7.377       6.953       6.681       6.500    
        6.355       6.229       6.116       5.956       5.831       5.788       5.766       5.735       5.664       5.565    
        5.469       5.363       5.225       5.004       4.696       4.387       4.136       3.939       3.600       3.112    
        2.619       2.149       1.765       1.409       1.019      0.6673      0.4055      0.2222      0.1037       0.000    
  19    10.00       9.937       9.855       9.705       9.556       9.488       9.402       9.283       9.158       8.986    
        8.787       8.612       8.358       8.015       7.729       7.447       7.058       6.708       6.532       6.413    
        6.260       6.102       5.974       5.838       5.769       5.745       5.719       5.670       5.593       5.510    
        5.418       5.304       5.124       4.895       4.641       4.379       4.162       3.909       3.433       2.953    
        2.563       2.083       1.666       1.320      0.9365      0.6016      0.3650      0.2109      0.1056       0.000    
  20    10.00       9.919       9.794       9.638       9.529       9.452       9.356       9.230       9.081       8.922    
        8.715       8.456       8.111       7.794       7.539       7.199       6.841       6.660       6.510       6.348    
        6.183       6.019       5.862       5.760       5.713       5.674       5.621       5.572       5.500       5.427    
        5.341       5.228       5.049       4.844       4.614       4.388       4.157       3.768       3.267       2.859    
        2.429       1.964       1.594       1.248      0.8907      0.5406      0.3170      0.2128      0.1075       0.000    
  21    10.00       9.872       9.744       9.616       9.503       9.417       9.313       9.153       9.002       8.848    
        8.580       8.252       7.927       7.664       7.388       7.061       6.803       6.644       6.474       6.296    
        6.095       5.909       5.771       5.667       5.590       5.522       5.481       5.439       5.366       5.311    
        5.247       5.132       4.978       4.798       4.592       4.374       4.050       3.655       3.219       2.734    
        2.301       1.865       1.545       1.227      0.7738      0.4562      0.3246      0.2368      0.1138       0.000    
  22    10.00       9.854       9.703       9.579       9.483       9.380       9.228       9.069       8.935       8.732    
        8.448       8.105       7.822       7.603       7.300       6.997       6.779       6.615       6.445       6.232    
        6.001       5.812       5.635       5.477       5.374       5.326       5.295       5.242       5.215       5.182    
        5.131       5.039       4.920       4.753       4.558       4.346       4.007       3.608       3.096       2.617    
        2.243       1.847       1.492       1.022      0.6358      0.4568      0.3432      0.2282      9.0549E-02   0.000    
  23    10.00       9.821       9.674       9.572       9.468       9.315       9.144       9.019       8.850       8.637    
        8.347       8.041       7.822       7.545       7.218       6.953       6.769       6.618       6.428       6.172    
        5.926       5.704       5.470       5.191       4.943       4.898       4.972       5.008       5.051       5.059    
        5.031       4.963       4.857       4.721       4.533       4.308       3.990       3.493       2.952       2.557    
        2.198       1.748       1.240      0.8324      0.6193      0.4682      0.3422      0.2170      0.1010       0.000    
  24    10.00       9.797       9.691       9.574       9.426       9.259       9.124       8.988       8.821       8.575    
        8.308       8.069       7.829       7.495       7.149       6.939       6.787       6.631       6.401       6.143    
        5.899       5.645       5.287       4.647       3.681       4.014       4.461       4.740       4.883       4.936    
        4.939       4.889       4.808       4.668       4.487       4.259       3.864       3.337       2.876       2.457    
        2.021       1.546       1.097      0.7926      0.6152      0.4648      0.3339      0.2529      0.1392       0.000    
  25    10.00       9.823       9.712       9.570       9.415       9.265       9.126       8.997       8.793       8.548    
        8.323       8.093       7.799       7.432       7.163       6.973       6.804       6.620       6.406       6.168    
        5.905       5.652       5.003       3.636      0.5246       3.061       4.021       4.499       4.745       4.849    
        4.867       4.836       4.753       4.589       4.396       4.121       3.711       3.205       2.788       2.334    
        1.831       1.384       1.018      0.7828      0.6391      0.4993      0.3647      0.2687      0.1753       0.000    
  26    10.00       9.849       9.743       9.592       9.432       9.300       9.156       8.993       8.783       8.592    
        8.399       8.093       7.721       7.408       7.213       7.042       6.842       6.605       6.377       6.173    
        5.972       5.695       5.100       4.113       3.072       3.593       4.151       4.497       4.705       4.812    
        4.823       4.788       4.685       4.523       4.337       4.037       3.502       3.036       2.686       2.133    
        1.589       1.220       1.006      0.8483      0.6958      0.5410      0.4009      0.2936      0.1753       0.000    
  27    10.00       9.882       9.754       9.625       9.482       9.329       9.186       9.028       8.840       8.658    
        8.398       8.036       7.714       7.460       7.289       7.098       6.835       6.574       6.390       6.228    
        6.061       5.778       5.334       4.794       4.222       4.248       4.447       4.627       4.756       4.809    
        4.800       4.755       4.653       4.489       4.238       3.771       3.267       2.904       2.368       1.829    
        1.442       1.203       1.047      0.9139      0.7733      0.5949      0.4281      0.3204      0.2153       0.000    
  28    10.00       9.893       9.785       9.661       9.531       9.387       9.238       9.079       8.901       8.690    
        8.371       8.043       7.764       7.521       7.344       7.150       6.926       6.672       6.431       6.272    
        6.123       5.922       5.629       5.231       4.874       4.715       4.728       4.808       4.833       4.834    
        4.795       4.731       4.609       4.380       4.010       3.524       3.101       2.608       2.082       1.728    
        1.447       1.251       1.097      0.9650      0.8205      0.6497      0.4848      0.3642      0.2220       0.000    
  29    10.00       9.898       9.795       9.703       9.577       9.445       9.302       9.142       8.954       8.670    
        8.356       8.069       7.804       7.603       7.400       7.190       6.986       6.784       6.554       6.350    
        6.192       6.024       5.824       5.582       5.260       5.085       5.018       4.984       4.953       4.880    
        4.791       4.667       4.512       4.200       3.763       3.332       2.897       2.405       2.007       1.752    
        1.524       1.308       1.140       1.011      0.8704      0.6954      0.5255      0.3846      0.2241       0.000    
  30    10.00       9.907       9.822       9.740       9.631       9.509       9.382       9.204       8.968       8.679    
        8.355       8.062       7.841       7.642       7.440       7.239       7.068       6.898       6.692       6.475    
        6.289       6.135       5.963       5.789       5.581       5.388       5.304       5.177       5.079       4.932    
        4.757       4.551       4.332       4.003       3.654       3.252       2.807       2.358       2.069       1.836    
        1.579       1.367       1.205       1.051      0.8926      0.7377      0.5596      0.4006      0.2420       0.000    
  31    10.00       9.923       9.849       9.772       9.693       9.597       9.457       9.246       8.973       8.672    
        8.360       8.087       7.876       7.673       7.494       7.307       7.132       7.001       6.803       6.596    
        6.418       6.258       6.107       5.942       5.799       5.647       5.497       5.346       5.163       4.949    
        4.685       4.426       4.202       3.947       3.603       3.188       2.766       2.400       2.169       1.959    
        1.691       1.447       1.258       1.095      0.9378      0.7738      0.5954      0.4278      0.2354       0.000    
  32    10.00       9.935       9.878       9.811       9.734       9.647       9.507       9.267       9.010       8.736    
        8.406       8.123       7.913       7.722       7.540       7.383       7.229       7.066       6.904       6.710    
        6.521       6.348       6.193       6.034       5.906       5.801       5.635       5.438       5.182       4.895    
        4.623       4.381       4.153       3.911       3.585       3.212       2.860       2.541       2.293       2.057    
        1.807       1.552       1.351       1.161      0.9803      0.8321      0.6495      0.4279      0.2124       0.000    
  33    10.00       9.943       9.897       9.843       9.768       9.668       9.490       9.257       9.042       8.788    
        8.466       8.186       7.968       7.759       7.589       7.456       7.320       7.158       6.981       6.798    
        6.602       6.415       6.232       6.080       5.979       5.874       5.682       5.421       5.154       4.890    
        4.630       4.415       4.190       3.891       3.585       3.250       2.949       2.692       2.433       2.174    
        1.941       1.699       1.478       1.279       1.078      0.9026      0.6975      0.4364      0.2055       0.000    
  34    10.00       9.949       9.918       9.870       9.777       9.639       9.467       9.294       9.073       8.796    
        8.512       8.238       8.004       7.793       7.643       7.539       7.395       7.231       7.035       6.860    
        6.677       6.456       6.274       6.136       6.030       5.887       5.657       5.426       5.157       4.869    
        4.650       4.468       4.258       3.965       3.655       3.350       3.073       2.841       2.576       2.315    
        2.093       1.871       1.637       1.432       1.220       1.013      0.7528      0.4835      0.2549       0.000    
  35    10.00       9.958       9.922       9.861       9.745       9.598       9.472       9.325       9.121       8.822    
        8.518       8.262       8.025       7.845       7.719       7.603       7.451       7.267       7.075       6.879    
        6.693       6.493       6.306       6.175       6.059       5.918       5.682       5.406       5.119       4.848    
        4.687       4.509       4.286       4.062       3.798       3.476       3.198       3.010       2.742       2.452    
        2.243       2.021       1.797       1.597       1.360       1.129      0.8672      0.5787      0.2892       0.000    
  36    10.00       9.955       9.904       9.835       9.719       9.579       9.466       9.327       9.121       8.840    
        8.522       8.243       8.065       7.925       7.807       7.661       7.476       7.293       7.084       6.829    
        6.631       6.469       6.311       6.197       6.086       5.916       5.658       5.373       5.081       4.843    
        4.691       4.539       4.334       4.123       3.898       3.606       3.329       3.124       2.890       2.577    
        2.343       2.118       1.891       1.726       1.497       1.241      0.9800      0.6788      0.3452       0.000    
  37    10.00       9.940       9.883       9.809       9.691       9.563       9.435       9.300       9.109       8.805    
        8.482       8.253       8.144       8.011       7.853       7.704       7.488       7.262       6.993       6.733    
        6.591       6.462       6.312       6.190       6.059       5.850       5.610       5.308       5.054       4.883    
        4.731       4.566       4.358       4.174       3.940       3.661       3.443       3.245       2.984       2.673    
        2.393       2.174       1.993       1.808       1.591       1.354       1.104      0.7660      0.4150       0.000    
  38    10.00       9.934       9.859       9.779       9.670       9.544       9.401       9.259       9.055       8.773    
        8.525       8.343       8.204       8.080       7.901       7.665       7.414       7.131       6.839       6.678    
        6.568       6.407       6.259       6.156       6.008       5.790       5.499       5.232       5.089       4.952    
        4.784       4.598       4.399       4.212       3.983       3.728       3.533       3.331       3.021       2.696    
        2.453       2.250       2.066       1.882       1.689       1.460       1.201      0.8763      0.4547       0.000    
  39    10.00       9.915       9.840       9.760       9.652       9.510       9.355       9.205       9.018       8.790    
        8.595       8.459       8.302       8.122       7.848       7.537       7.222       6.917       6.743       6.645    
        6.488       6.313       6.206       6.110       5.967       5.715       5.433       5.265       5.140       4.995    
        4.814       4.638       4.437       4.237       4.043       3.833       3.608       3.372       3.054       2.734    
        2.479       2.276       2.133       1.986       1.777       1.543       1.282      0.9285      0.4547       0.000    
  40    10.00       9.900       9.827       9.746       9.636       9.487       9.327       9.175       9.016       8.826    
        8.665       8.546       8.344       8.046       7.692       7.341       7.024       6.820       6.710       6.584    
        6.409       6.260       6.167       6.045       5.879       5.673       5.492       5.326       5.178       5.041    
        4.874       4.677       4.473       4.286       4.107       3.894       3.652       3.416       3.070       2.720    
        2.490       2.321       2.173       2.046       1.835       1.575       1.335      0.9646      0.4763       0.000    
  41    10.00       9.907       9.820       9.730       9.609       9.473       9.333       9.196       9.043       8.872    
        8.719       8.569       8.288       7.903       7.512       7.196       6.950       6.780       6.665       6.520    
        6.341       6.216       6.107       5.978       5.834       5.690       5.558       5.398       5.221       5.063    
        4.912       4.726       4.520       4.350       4.163       3.955       3.708       3.379       2.995       2.727    
        2.540       2.365       2.228       2.069       1.846       1.588       1.376       1.024      0.5243       0.000    
  42    10.00       9.910       9.813       9.730       9.623       9.496       9.356       9.203       9.066       8.933    
        8.745       8.470       8.115       7.717       7.366       7.125       6.914       6.755       6.619       6.445    
        6.281       6.163       6.052       5.961       5.842       5.737       5.614       5.430       5.241       5.100    
        4.968       4.766       4.546       4.386       4.226       3.994       3.676       3.282       2.942       2.737    
        2.589       2.440       2.270       2.064       1.832       1.625       1.411       1.066      0.5485       0.000    
  43    10.00       9.911       9.821       9.736       9.651       9.538       9.396       9.245       9.094       8.901    
        8.625       8.307       7.944       7.562       7.293       7.091       6.892       6.725       6.560       6.387    
        6.235       6.125       6.045       5.975       5.871       5.757       5.636       5.456       5.287       5.173    
        5.006       4.784       4.577       4.420       4.236       3.951       3.578       3.198       2.962       2.801    
        2.643       2.482       2.276       2.053       1.841       1.641       1.449       1.063      0.4787       0.000    
  44    10.00       9.905       9.823       9.749       9.655       9.568       9.447       9.261       9.055       8.784    
        8.504       8.170       7.773       7.497       7.290       7.067       6.849       6.656       6.477       6.324    
        6.216       6.130       6.056       5.983       5.893       5.778       5.636       5.494       5.364       5.220    
        5.059       4.859       4.625       4.402       4.187       3.896       3.507       3.179       2.990       2.834    
        2.683       2.505       2.298       2.099       1.878       1.656       1.405      0.9100      0.4021       0.000    
  45    10.00       9.905       9.837       9.752       9.663       9.585       9.408       9.194       8.950       8.683    
        8.448       8.047       7.679       7.473       7.260       7.016       6.769       6.572       6.415       6.306    
        6.230       6.154       6.077       5.990       5.893       5.787       5.669       5.549       5.442       5.294    
        5.101       4.887       4.650       4.382       4.137       3.822       3.456       3.198       3.043       2.887    
        2.690       2.485       2.303       2.124       1.931       1.691       1.267      0.7627      0.3863       0.000    
  46    10.00       9.921       9.849       9.758       9.660       9.512       9.324       9.147       8.923       8.662    
        8.323       7.955       7.659       7.402       7.185       6.943       6.697       6.543       6.426       6.326    
        6.256       6.186       6.094       5.990       5.895       5.801       5.704       5.598       5.491       5.355    
        5.175       4.952       4.689       4.385       4.044       3.706       3.440       3.264       3.091       2.911    
        2.685       2.471       2.291       2.146       1.939       1.605       1.136      0.7183      0.3650       0.000    
  47    10.00       9.938       9.872       9.776       9.607       9.427       9.267       9.114       8.914       8.587    
        8.222       7.880       7.596       7.380       7.147       6.879       6.667       6.531       6.438       6.356    
        6.281       6.199       6.107       6.006       5.911       5.831       5.745       5.640       5.517       5.381    
        5.222       5.024       4.684       4.282       3.962       3.713       3.482       3.331       3.172       2.923    
        2.653       2.429       2.260       2.143       1.883       1.484       1.054      0.6912      0.3548       0.000    
  48    10.00       9.946       9.875       9.732       9.561       9.412       9.240       9.087       8.873       8.528    
        8.131       7.820       7.590       7.332       7.061       6.822       6.662       6.529       6.440       6.379    
        6.304       6.206       6.105       6.017       5.941       5.873       5.791       5.674       5.528       5.371    
        5.206       4.979       4.627       4.298       4.019       3.771       3.555       3.384       3.179       2.880    
        2.595       2.415       2.275       2.054       1.707       1.351       1.006      0.6960      0.3744       0.000    
  49    10.00       9.943       9.841       9.714       9.573       9.400       9.228       9.055       8.790       8.425    
        8.082       7.792       7.514       7.270       7.062       6.836       6.630       6.510       6.451       6.392    
        6.321       6.211       6.099       6.026       5.964       5.910       5.818       5.677       5.511       5.361    
        5.188       4.910       4.613       4.392       4.136       3.846       3.584       3.378       3.141       2.822    
        2.593       2.435       2.225       1.894       1.585       1.294      0.9948      0.6959      0.3732       0.000    
  50    10.00       9.935       9.830       9.699       9.572       9.410       9.217       9.001       8.722       8.434    
        8.076       7.713       7.455       7.260       7.084       6.830       6.602       6.512       6.460       6.400    
        6.329       6.215       6.101       6.030       5.978       5.927       5.823       5.661       5.494       5.351    
        5.174       4.887       4.658       4.459       4.191       3.903       3.629       3.346       3.023       2.756    
        2.638       2.459       2.136       1.803       1.573       1.292       1.009      0.6816      0.3039       0.000    

 HEAD WILL BE SAVED ON UNIT   51 AT END OF TIME STEP  32, STRESS PERIOD    2

 DRAWDOWN WILL BE SAVED ON UNIT   52 AT END OF TIME STEP  32, STRESS PERIOD    2
1
  VOLUMETRIC BUDGET FOR ENTIRE MODEL AT END OF TIME STEP 32 IN STRESS PERIOD   2
  ------------------------------------------------------------------------------

     CUMULATIVE VOLUMES      L**3       RATES FOR THIS TIME STEP      L**3/T
     ------------------                 ------------------------

           IN:                                      IN:
           ---                                      ---
             STORAGE =       15928.0869               STORAGE =         490.0626
       CONSTANT HEAD =       19771.4863         CONSTANT HEAD =         606.2648
               WELLS =           0.0000                 WELLS =           0.0000

            TOTAL IN =       35699.5742              TOTAL IN =        1096.3274

          OUT:                                     OUT:
          ----                                     ----
             STORAGE =       9.4320E-03               STORAGE =           0.0000
       CONSTANT HEAD =       19699.5625         CONSTANT HEAD =         596.3270
               WELLS =       16000.0000                 WELLS =         500.0000

           TOTAL OUT =       35699.5703             TOTAL OUT =        1096.3270

            IN - OUT =       3.9063E-03              IN - OUT =       3.6621E-04

 PERCENT DISCREPANCY =           0.00     PERCENT DISCREPANCY =           0.00






          TIME SUMMARY AT END OF TIME STEP  32 IN STRESS PERIOD    2
                    SECONDS     MINUTES      HOURS       DAYS        YEARS
                    -----------------------------------------------------------
   TIME STEP LENGTH  86400.      1440.0      24.000      1.0000     2.73785E-03
 STRESS PERIOD TIME 2.76480E+06  46080.      768.00      32.000     8.76112E-02
         TOTAL TIME 2.85120E+06  47520.      792.00      33.000     9.03491E-02
1
 
 SOLVING FOR HEAD 

 OUTPUT CONTROL FOR STRESS PERIOD    2   TIME STEP  33
    SAVE HEAD FOR ALL LAYERS
    SAVE DRAWDOWN FOR ALL LAYERS
    SAVE BUDGET
    PRINT HEAD FOR ALL LAYERS
    PRINT BUDGET
 UBDSV1 SAVING "         STORAGE" ON UNIT  53 AT TIME STEP 33, STRESS PERIOD   2
 UBDSV2 SAVING "   CONSTANT HEAD" ON UNIT  53 AT TIME STEP 33, STRESS PERIOD   2
 UBDSV1 SAVING "FLOW RIGHT FACE " ON UNIT  53 AT TIME STEP 33, STRESS PERIOD   2
 UBDSV1 SAVING "FLOW FRONT FACE " ON UNIT  53 AT TIME STEP 33, STRESS PERIOD   2
1
              HEAD IN LAYER   1 AT END OF TIME STEP  33 IN STRESS PERIOD    2
  ---------------------------------------------------------------------------

            1           2           3           4           5           6           7           8           9          10
           11          12          13          14          15          16          17          18          19          20
           21          22          23          24          25          26          27          28          29          30
           31          32          33          34          35          36          37          38          39          40
           41          42          43          44          45          46          47          48          49          50
 ........................................................................................................................
   1    10.00       9.959       9.900       9.833       9.769       9.695       9.625       9.556       9.469       9.383    
        9.317       9.252       9.185       9.121       9.016       8.889       8.748       8.637       8.579       8.512    
        8.432       8.367       8.303       8.229       8.130       7.935       7.713       7.558       7.406       7.263    
        7.076       6.777       6.395       5.970       5.529       5.061       4.598       4.212       3.708       3.161    
        2.711       2.281       1.805       1.406       1.160      0.9509      0.7856      0.6660      0.4470       0.000    
   2    10.00       9.958       9.905       9.838       9.772       9.706       9.637       9.546       9.451       9.381    
        9.324       9.268       9.212       9.132       9.012       8.879       8.747       8.637       8.577       8.502    
        8.422       8.373       8.322       8.244       8.119       7.928       7.727       7.567       7.413       7.274    
        7.065       6.752       6.351       5.868       5.398       4.945       4.544       4.171       3.658       3.129    
        2.678       2.195       1.760       1.446       1.215       1.035      0.8304      0.6482      0.3616       0.000    
   3    10.00       9.952       9.899       9.840       9.782       9.715       9.626       9.531       9.463       9.400    
        9.336       9.286       9.237       9.159       9.036       8.873       8.728       8.639       8.570       8.493    
        8.428       8.377       8.324       8.221       8.085       7.915       7.741       7.615       7.437       7.254    
        6.993       6.622       6.165       5.697       5.280       4.856       4.463       4.063       3.532       3.042    
        2.655       2.209       1.810       1.523       1.293       1.107      0.8641      0.5793      0.2627       0.000    
   4    10.00       9.952       9.900       9.842       9.777       9.700       9.608       9.535       9.477       9.412    
        9.356       9.314       9.259       9.171       9.052       8.878       8.728       8.644       8.566       8.498    
        8.428       8.365       8.298       8.191       8.056       7.904       7.747       7.592       7.434       7.227    
        6.899       6.411       5.927       5.571       5.222       4.785       4.312       3.843       3.419       3.048    
        2.685       2.271       1.895       1.636       1.377       1.140      0.8396      0.5212      0.2497       0.000    
   5    10.00       9.949       9.897       9.831       9.765       9.694       9.611       9.548       9.488       9.428    
        9.379       9.337       9.265       9.163       9.031       8.873       8.746       8.654       8.577       8.486    
        8.402       8.334       8.253       8.148       8.027       7.872       7.716       7.573       7.414       7.164    
        6.695       6.150       5.762       5.484       5.138       4.664       4.176       3.750       3.431       3.095    
        2.738       2.356       1.984       1.742       1.464       1.122      0.7644      0.4649      0.2338       0.000    
   6    10.00       9.942       9.880       9.825       9.765       9.687       9.618       9.564       9.500       9.443    
        9.397       9.347       9.256       9.141       9.026       8.894       8.765       8.660       8.559       8.453    
        8.369       8.290       8.219       8.124       7.971       7.819       7.692       7.548       7.327       6.950    
        6.435       5.942       5.619       5.377       5.065       4.596       4.109       3.748       3.478       3.173    
        2.846       2.509       2.127       1.803       1.435       1.059      0.6753      0.4013      0.2209       0.000    
   7    10.00       9.931       9.870       9.819       9.757       9.692       9.630       9.579       9.521       9.465    
        9.408       9.332       9.233       9.125       9.016       8.912       8.778       8.635       8.519       8.415    
        8.327       8.250       8.189       8.071       7.915       7.786       7.658       7.465       7.115       6.634    
        6.142       5.742       5.521       5.304       4.942       4.504       4.175       3.823       3.527       3.327    
        3.016       2.654       2.205       1.743       1.331      0.9200      0.5820      0.4043      0.2081       0.000    
   8    10.00       9.930       9.876       9.818       9.755       9.698       9.644       9.592       9.538       9.485    
        9.410       9.314       9.216       9.114       9.013       8.897       8.729       8.579       8.485       8.385    
        8.286       8.220       8.130       8.004       7.869       7.734       7.520       7.223       6.784       6.363    
        5.991       5.678       5.474       5.226       4.840       4.477       4.180       3.920       3.689       3.457    
        3.154       2.699       2.148       1.655       1.225      0.8617      0.6164      0.3962      0.1899       0.000    
   9    10.00       9.941       9.875       9.812       9.766       9.718       9.664       9.609       9.549       9.492    
        9.406       9.297       9.191       9.089       8.982       8.845       8.683       8.545       8.442       8.340    
        8.252       8.168       8.046       7.927       7.803       7.638       7.334       6.934       6.525       6.216    
        5.909       5.647       5.422       5.111       4.752       4.447       4.220       4.026       3.819       3.566    
        3.202       2.706       2.144       1.653       1.235      0.8811      0.6221      0.3998      0.2044       0.000    
  10    10.00       9.939       9.869       9.818       9.775       9.729       9.680       9.633       9.564       9.480    
        9.376       9.262       9.161       9.066       8.956       8.788       8.618       8.499       8.403       8.307    
        8.224       8.109       7.974       7.841       7.697       7.463       7.076       6.661       6.308       6.060    
        5.860       5.635       5.365       5.049       4.711       4.451       4.276       4.107       3.884       3.593    
        3.177       2.663       2.149       1.730       1.338      0.9701      0.6418      0.4247      0.2282       0.000    
  11    10.00       9.926       9.869       9.827       9.785       9.745       9.701       9.635       9.542       9.448    
        9.345       9.233       9.140       9.026       8.877       8.717       8.577       8.470       8.383       8.285    
        8.164       8.017       7.838       7.685       7.449       7.124       6.793       6.483       6.183       5.994    
        5.839       5.558       5.260       4.998       4.736       4.532       4.348       4.134       3.859       3.508    
        3.117       2.720       2.226       1.812       1.439       1.074      0.7213      0.4171      0.1749       0.000    
  12    10.00       9.928       9.876       9.831       9.795       9.755       9.704       9.612       9.505       9.415    
        9.319       9.204       9.091       8.956       8.825       8.679       8.543       8.451       8.355       8.222    
        8.024       7.807       7.597       7.385       7.071       6.824       6.630       6.329       6.077       5.927    
        5.750       5.493       5.242       4.997       4.805       4.611       4.378       4.117       3.783       3.431    
        3.100       2.740       2.263       1.856       1.505       1.122      0.7592      0.3936      0.1306       0.000    
  13    10.00       9.942       9.893       9.846       9.803       9.755       9.674       9.570       9.469       9.377    
        9.270       9.158       9.041       8.902       8.758       8.620       8.522       8.408       8.283       8.029    
        7.732       7.503       7.270       6.989       6.746       6.622       6.405       6.140       5.997       5.858    
        5.647       5.420       5.220       5.032       4.865       4.685       4.408       4.055       3.733       3.401    
        3.084       2.711       2.200       1.822       1.520       1.113      0.6983      0.3401      0.1041       0.000    
  14    10.00       9.955       9.913       9.863       9.804       9.726       9.621       9.517       9.427       9.327    
        9.217       9.113       8.981       8.836       8.709       8.589       8.444       8.300       8.057       7.681    
        7.394       7.171       6.861       6.638       6.520       6.406       6.193       6.024       5.889       5.747    
        5.562       5.391       5.245       5.078       4.897       4.716       4.405       4.021       3.689       3.347    
        3.022       2.560       2.073       1.776       1.433       1.067      0.6999      0.3152      8.9772E-02   0.000    
  15    10.00       9.964       9.921       9.865       9.795       9.682       9.555       9.464       9.380       9.281    
        9.196       9.089       8.922       8.757       8.641       8.461       8.277       8.125       7.758       7.345    
        7.084       6.786       6.521       6.432       6.365       6.226       6.043       5.885       5.778       5.666    
        5.519       5.391       5.268       5.120       4.940       4.721       4.361       3.938       3.588       3.276    
        2.928       2.462       2.078       1.707       1.299      0.9770      0.6259      0.2893      9.7855E-02   0.000    
  16    10.00       9.971       9.924       9.856       9.754       9.619       9.506       9.434       9.360       9.261    
        9.159       9.004       8.799       8.640       8.476       8.269       8.145       7.843       7.326       6.961    
        6.726       6.467       6.367       6.312       6.195       6.017       5.874       5.790       5.730       5.631    
        5.505       5.388       5.285       5.137       4.922       4.631       4.223       3.859       3.581       3.250    
        2.847       2.388       1.976       1.573       1.222      0.8659      0.5619      0.2923      0.1043       0.000    
  17    10.00       9.967       9.911       9.821       9.705       9.566       9.467       9.404       9.317       9.214    
        9.034       8.820       8.648       8.487       8.277       8.070       7.814       7.332       6.893       6.660    
        6.472       6.329       6.257       6.138       5.960       5.832       5.786       5.753       5.693       5.590    
        5.480       5.376       5.268       5.123       4.824       4.445       4.130       3.889       3.620       3.222    
        2.712       2.263       1.881       1.503       1.097      0.7227      0.4792      0.2657      0.1106       0.000    
  18    10.00       9.953       9.881       9.777       9.627       9.510       9.441       9.348       9.243       9.091    
        8.865       8.686       8.525       8.282       8.008       7.722       7.361       6.936       6.662       6.480    
        6.336       6.210       6.096       5.936       5.811       5.768       5.746       5.716       5.645       5.548    
        5.452       5.348       5.211       4.991       4.685       4.378       4.128       3.931       3.594       3.108    
        2.616       2.148       1.763       1.408       1.018      0.6670      0.4053      0.2221      0.1036       0.000    
  19    10.00       9.937       9.855       9.704       9.555       9.487       9.400       9.281       9.154       8.982    
        8.781       8.605       8.349       8.004       7.716       7.432       7.041       6.688       6.512       6.393    
        6.240       6.082       5.954       5.818       5.748       5.725       5.699       5.651       5.574       5.491    
        5.401       5.287       5.109       4.882       4.630       4.368       4.153       3.902       3.427       2.949    
        2.560       2.081       1.665       1.319      0.9360      0.6013      0.3648      0.2108      0.1055       0.000    
  20    10.00       9.919       9.793       9.637       9.527       9.450       9.354       9.228       9.078       8.917    
        8.709       8.448       8.101       7.781       7.524       7.182       6.823       6.640       6.491       6.328    
        6.163       5.998       5.841       5.740       5.692       5.653       5.601       5.552       5.480       5.408    
        5.323       5.211       5.033       4.830       4.602       4.377       4.148       3.760       3.262       2.855    
        2.426       1.962       1.593       1.247      0.8902      0.5403      0.3168      0.2127      0.1074       0.000    
  21    10.00       9.872       9.743       9.615       9.502       9.415       9.310       9.150       8.998       8.843    
        8.573       8.242       7.915       7.650       7.373       7.043       6.784       6.624       6.453       6.275    
        6.074       5.888       5.750       5.646       5.568       5.501       5.460       5.418       5.345       5.291    
        5.228       5.114       4.961       4.783       4.579       4.362       4.040       3.647       3.214       2.730    
        2.298       1.863       1.544       1.226      0.7733      0.4560      0.3245      0.2367      0.1137       0.000    
  22    10.00       9.853       9.702       9.578       9.482       9.378       9.225       9.066       8.930       8.726    
        8.440       8.094       7.809       7.589       7.284       6.979       6.760       6.595       6.425       6.211    
        5.980       5.791       5.613       5.455       5.352       5.304       5.273       5.220       5.194       5.161    
        5.111       5.020       4.903       4.737       4.544       4.334       3.997       3.601       3.091       2.614    
        2.240       1.845       1.491       1.021      0.6355      0.4566      0.3431      0.2281      9.0513E-02   0.000    
  23    10.00       9.821       9.674       9.571       9.466       9.313       9.141       9.015       8.844       8.630    
        8.338       8.029       7.809       7.530       7.201       6.935       6.750       6.599       6.407       6.151    
        5.904       5.682       5.448       5.168       4.921       4.875       4.949       4.985       5.028       5.037    
        5.010       4.943       4.839       4.704       4.518       4.296       3.980       3.486       2.947       2.554    
        2.196       1.747       1.239      0.8319      0.6190      0.4680      0.3421      0.2169      0.1010       0.000    
  24    10.00       9.797       9.690       9.573       9.424       9.256       9.120       8.983       8.815       8.568    
        8.298       8.058       7.816       7.480       7.132       6.920       6.768       6.611       6.380       6.122    
        5.878       5.623       5.265       4.624       3.657       3.990       4.437       4.716       4.860       4.914    
        4.917       4.869       4.789       4.651       4.472       4.247       3.854       3.331       2.872       2.454    
        2.019       1.545       1.096      0.7922      0.6149      0.4646      0.3338      0.2528      0.1391       0.000    
  25    10.00       9.823       9.711       9.569       9.413       9.262       9.123       8.993       8.787       8.540    
        8.314       8.082       7.786       7.417       7.146       6.954       6.785       6.601       6.386       6.147    
        5.884       5.630       4.980       3.612      0.4984       3.036       3.997       4.475       4.722       4.827    
        4.846       4.816       4.734       4.572       4.382       4.109       3.702       3.199       2.784       2.332    
        1.830       1.383       1.018      0.7824      0.6388      0.4991      0.3646      0.2686      0.1753       0.000    
  26    10.00       9.849       9.743       9.590       9.430       9.297       9.153       8.988       8.777       8.585    
        8.390       8.082       7.708       7.393       7.196       7.025       6.823       6.585       6.357       6.152    
        5.950       5.673       5.077       4.088       3.047       3.567       4.126       4.472       4.681       4.789    
        4.801       4.768       4.666       4.506       4.322       4.025       3.493       3.031       2.682       2.131    
        1.588       1.220       1.005      0.8480      0.6955      0.5408      0.4008      0.2935      0.1752       0.000    
  27    10.00       9.882       9.754       9.623       9.480       9.327       9.183       9.023       8.834       8.651    
        8.389       8.025       7.701       7.446       7.273       7.081       6.816       6.555       6.370       6.208    
        6.040       5.756       5.312       4.771       4.197       4.223       4.422       4.602       4.731       4.786    
        4.778       4.734       4.635       4.472       4.224       3.761       3.260       2.900       2.365       1.828    
        1.441       1.202       1.047      0.9136      0.7730      0.5947      0.4280      0.3203      0.2152       0.000    
  28    10.00       9.893       9.784       9.660       9.529       9.384       9.235       9.075       8.896       8.684    
        8.362       8.032       7.751       7.507       7.329       7.133       6.908       6.654       6.411       6.251    
        6.102       5.900       5.607       5.208       4.850       4.690       4.703       4.783       4.809       4.812    
        4.774       4.711       4.591       4.365       3.998       3.516       3.095       2.604       2.080       1.726    
        1.446       1.251       1.097      0.9646      0.8202      0.6495      0.4846      0.3641      0.2219       0.000    
  29    10.00       9.898       9.794       9.701       9.576       9.443       9.300       9.138       8.949       8.664    
        8.347       8.058       7.791       7.590       7.385       7.174       6.969       6.766       6.535       6.330    
        6.172       6.003       5.802       5.560       5.236       5.062       4.994       4.960       4.930       4.858    
        4.771       4.649       4.496       4.187       3.754       3.326       2.893       2.402       2.006       1.751    
        1.523       1.307       1.140       1.011      0.8700      0.6952      0.5253      0.3845      0.2241       0.000    
  30    10.00       9.907       9.821       9.739       9.630       9.507       9.380       9.200       8.964       8.672    
        8.347       8.052       7.829       7.629       7.426       7.224       7.052       6.881       6.674       6.456    
        6.269       6.114       5.942       5.767       5.558       5.366       5.282       5.154       5.057       4.912    
        4.739       4.536       4.320       3.993       3.647       3.247       2.804       2.356       2.068       1.835    
        1.578       1.366       1.205       1.051      0.8923      0.7375      0.5595      0.4005      0.2420       0.000    
  31    10.00       9.922       9.848       9.771       9.692       9.595       9.455       9.243       8.969       8.666    
        8.352       8.078       7.866       7.661       7.481       7.293       7.117       6.986       6.786       6.578    
        6.400       6.239       6.087       5.922       5.779       5.626       5.477       5.326       5.143       4.932    
        4.671       4.415       4.192       3.939       3.598       3.184       2.763       2.398       2.167       1.958    
        1.690       1.446       1.258       1.095      0.9375      0.7736      0.5952      0.4276      0.2353       0.000    
  32    10.00       9.934       9.878       9.810       9.733       9.645       9.506       9.264       9.006       8.731    
        8.399       8.114       7.903       7.711       7.528       7.370       7.215       7.051       6.889       6.693    
        6.503       6.330       6.175       6.015       5.887       5.782       5.616       5.420       5.166       4.882    
        4.612       4.372       4.145       3.905       3.580       3.209       2.857       2.539       2.292       2.055    
        1.806       1.552       1.350       1.160      0.9800      0.8319      0.6493      0.4278      0.2124       0.000    
  33    10.00       9.943       9.897       9.842       9.767       9.667       9.489       9.254       9.039       8.783    
        8.460       8.178       7.959       7.749       7.578       7.444       7.308       7.145       6.967       6.783    
        6.586       6.399       6.215       6.063       5.962       5.856       5.665       5.406       5.141       4.880    
        4.622       4.408       4.183       3.886       3.581       3.247       2.947       2.690       2.431       2.173    
        1.940       1.699       1.478       1.278       1.078      0.9025      0.6974      0.4363      0.2055       0.000    
  34    10.00       9.949       9.917       9.870       9.776       9.638       9.465       9.292       9.070       8.792    
        8.506       8.231       7.996       7.784       7.633       7.528       7.384       7.218       7.022       6.846    
        6.662       6.441       6.259       6.120       6.015       5.872       5.644       5.414       5.147       4.860    
        4.644       4.462       4.253       3.961       3.652       3.348       3.071       2.840       2.575       2.315    
        2.093       1.870       1.636       1.432       1.220       1.013      0.7527      0.4834      0.2549       0.000    
  35    10.00       9.958       9.921       9.861       9.744       9.597       9.471       9.323       9.118       8.818    
        8.513       8.256       8.017       7.837       7.711       7.594       7.441       7.255       7.063       6.867    
        6.681       6.480       6.293       6.162       6.046       5.906       5.670       5.396       5.111       4.841    
        4.681       4.504       4.282       4.058       3.795       3.474       3.196       3.009       2.741       2.451    
        2.242       2.020       1.797       1.597       1.360       1.129      0.8672      0.5787      0.2892       0.000    
  36    10.00       9.955       9.903       9.835       9.719       9.579       9.465       9.326       9.119       8.837    
        8.517       8.237       8.059       7.918       7.799       7.652       7.467       7.283       7.074       6.819    
        6.621       6.459       6.301       6.186       6.075       5.906       5.649       5.366       5.075       4.838    
        4.687       4.535       4.331       4.121       3.896       3.605       3.328       3.123       2.889       2.577    
        2.343       2.118       1.891       1.725       1.497       1.241      0.9800      0.6787      0.3452       0.000    
  37    10.00       9.940       9.883       9.808       9.691       9.562       9.434       9.298       9.107       8.802    
        8.478       8.248       8.139       8.005       7.846       7.696       7.480       7.253       6.985       6.726    
        6.582       6.454       6.304       6.181       6.050       5.842       5.603       5.303       5.051       4.879    
        4.728       4.564       4.355       4.172       3.938       3.660       3.442       3.244       2.983       2.673    
        2.393       2.174       1.993       1.808       1.591       1.354       1.104      0.7660      0.4150       0.000    
  38    10.00       9.933       9.859       9.779       9.670       9.543       9.400       9.258       9.054       8.770    
        8.522       8.339       8.199       8.075       7.895       7.658       7.408       7.125       6.833       6.672    
        6.561       6.401       6.252       6.150       6.002       5.784       5.495       5.229       5.086       4.949    
        4.781       4.596       4.397       4.210       3.981       3.727       3.532       3.330       3.020       2.695    
        2.452       2.250       2.066       1.882       1.689       1.460       1.201      0.8763      0.4546       0.000    
  39    10.00       9.915       9.839       9.759       9.651       9.509       9.354       9.204       9.017       8.787    
        8.593       8.456       8.298       8.118       7.844       7.532       7.217       6.912       6.739       6.641    
        6.483       6.309       6.202       6.105       5.963       5.711       5.431       5.263       5.138       4.993    
        4.813       4.637       4.435       4.236       4.042       3.832       3.607       3.372       3.053       2.733    
        2.478       2.275       2.133       1.986       1.777       1.543       1.281      0.9285      0.4546       0.000    
  40    10.00       9.900       9.826       9.745       9.636       9.487       9.326       9.174       9.015       8.824    
        8.663       8.543       8.341       8.043       7.689       7.338       7.021       6.817       6.706       6.581    
        6.405       6.257       6.163       6.042       5.876       5.671       5.490       5.324       5.176       5.039    
        4.872       4.676       4.472       4.285       4.107       3.894       3.652       3.416       3.069       2.720    
        2.490       2.321       2.173       2.046       1.835       1.575       1.335      0.9646      0.4762       0.000    
  41    10.00       9.907       9.820       9.730       9.609       9.473       9.332       9.195       9.042       8.871    
        8.717       8.567       8.285       7.901       7.510       7.194       6.948       6.778       6.662       6.517    
        6.339       6.213       6.105       5.976       5.832       5.688       5.556       5.396       5.219       5.062    
        4.911       4.725       4.519       4.349       4.162       3.955       3.708       3.378       2.995       2.727    
        2.540       2.365       2.228       2.069       1.845       1.588       1.376       1.024      0.5243       0.000    
  42    10.00       9.910       9.813       9.729       9.623       9.496       9.355       9.202       9.065       8.932    
        8.744       8.469       8.113       7.716       7.365       7.123       6.912       6.753       6.617       6.443    
        6.279       6.162       6.051       5.960       5.840       5.736       5.613       5.429       5.240       5.099    
        4.967       4.766       4.545       4.385       4.226       3.993       3.675       3.282       2.941       2.737    
        2.588       2.440       2.270       2.064       1.832       1.625       1.410       1.066      0.5485       0.000    
  43    10.00       9.911       9.821       9.736       9.651       9.538       9.396       9.244       9.093       8.900    
        8.624       8.306       7.943       7.561       7.292       7.090       6.891       6.723       6.558       6.385    
        6.234       6.124       6.043       5.973       5.869       5.756       5.635       5.455       5.287       5.173    
        5.005       4.783       4.577       4.419       4.236       3.951       3.578       3.198       2.962       2.801    
        2.643       2.482       2.276       2.053       1.841       1.641       1.449       1.063      0.4787       0.000    
  44    10.00       9.905       9.823       9.749       9.655       9.568       9.447       9.261       9.055       8.783    
        8.504       8.169       7.772       7.496       7.289       7.066       6.848       6.655       6.476       6.323    
        6.215       6.129       6.055       5.982       5.892       5.777       5.635       5.493       5.363       5.219    
        5.058       4.858       4.624       4.402       4.186       3.896       3.507       3.179       2.990       2.834    
        2.683       2.505       2.298       2.099       1.878       1.656       1.405      0.9099      0.4021       0.000    
  45    10.00       9.905       9.837       9.752       9.663       9.585       9.407       9.193       8.950       8.682    
        8.447       8.046       7.678       7.472       7.259       7.015       6.768       6.571       6.414       6.305    
        6.229       6.153       6.076       5.989       5.892       5.786       5.668       5.548       5.441       5.294    
        5.100       4.887       4.650       4.381       4.137       3.821       3.456       3.198       3.043       2.886    
        2.690       2.485       2.303       2.124       1.931       1.691       1.267      0.7627      0.3863       0.000    
  46    10.00       9.921       9.849       9.758       9.660       9.512       9.324       9.146       8.923       8.662    
        8.323       7.954       7.659       7.402       7.184       6.942       6.696       6.543       6.425       6.326    
        6.255       6.185       6.093       5.989       5.894       5.800       5.703       5.597       5.490       5.354    
        5.174       4.951       4.688       4.384       4.044       3.705       3.439       3.263       3.091       2.911    
        2.685       2.471       2.291       2.146       1.939       1.605       1.135      0.7183      0.3650       0.000    
  47    10.00       9.938       9.872       9.776       9.607       9.427       9.267       9.114       8.914       8.587    
        8.222       7.880       7.595       7.379       7.146       6.878       6.667       6.530       6.437       6.355    
        6.280       6.198       6.107       6.005       5.911       5.830       5.744       5.639       5.516       5.381    
        5.222       5.023       4.683       4.281       3.962       3.713       3.482       3.331       3.172       2.923    
        2.653       2.429       2.260       2.143       1.883       1.484       1.054      0.6912      0.3547       0.000    
  48    10.00       9.946       9.875       9.732       9.561       9.412       9.240       9.086       8.873       8.528    
        8.130       7.820       7.590       7.332       7.061       6.821       6.662       6.529       6.439       6.379    
        6.303       6.205       6.104       6.016       5.941       5.872       5.790       5.674       5.528       5.371    
        5.206       4.979       4.627       4.297       4.018       3.771       3.555       3.384       3.179       2.880    
        2.595       2.415       2.275       2.054       1.707       1.351       1.006      0.6960      0.3744       0.000    
  49    10.00       9.943       9.841       9.713       9.573       9.400       9.227       9.055       8.790       8.425    
        8.082       7.792       7.514       7.270       7.061       6.836       6.630       6.509       6.451       6.392    
        6.321       6.210       6.098       6.025       5.963       5.909       5.817       5.676       5.511       5.360    
        5.188       4.910       4.613       4.392       4.136       3.846       3.584       3.378       3.141       2.822    
        2.593       2.435       2.225       1.894       1.585       1.294      0.9948      0.6959      0.3732       0.000    
  50    10.00       9.935       9.830       9.699       9.572       9.410       9.217       9.001       8.722       8.434    
        8.076       7.712       7.455       7.260       7.084       6.829       6.601       6.512       6.459       6.400    
        6.329       6.214       6.100       6.029       5.977       5.927       5.822       5.661       5.493       5.350    
        5.173       4.887       4.657       4.459       4.191       3.903       3.629       3.346       3.023       2.756    
        2.638       2.459       2.136       1.803       1.573       1.292       1.009      0.6816      0.3039       0.000    

 HEAD WILL BE SAVED ON UNIT   51 AT END OF TIME STEP  33, STRESS PERIOD    2

 DRAWDOWN WILL BE SAVED ON UNIT   52 AT END OF TIME STEP  33, STRESS PERIOD    2
1
  VOLUMETRIC BUDGET FOR ENTIRE MODEL AT END OF TIME STEP 33 IN STRESS PERIOD   2
  ------------------------------------------------------------------------------

     CUMULATIVE VOLUMES      L**3       RATES FOR THIS TIME STEP      L**3/T
     ------------------                 ------------------------

           IN:                                      IN:
           ---                                      ---
             STORAGE =       16417.0801               STORAGE =         488.9940
       CONSTANT HEAD =       20378.7012         CONSTANT HEAD =         607.2147
               WELLS =           0.0000                 WELLS =           0.0000

            TOTAL IN =       36795.7812              TOTAL IN =        1096.2087

          OUT:                                     OUT:
          ----                                     ----
             STORAGE =       9.4320E-03               STORAGE =           0.0000
       CONSTANT HEAD =       20295.7715         CONSTANT HEAD =         596.2085
               WELLS =       16500.0000                 WELLS =         500.0000

           TOTAL OUT =       36795.7812             TOTAL OUT =        1096.2085

            IN - OUT =           0.0000              IN - OUT =       2.4414E-04

 PERCENT DISCREPANCY =           0.00     PERCENT DISCREPANCY =           0.00






          TIME SUMMARY AT END OF TIME STEP  33 IN STRESS PERIOD    2
                    SECONDS     MINUTES      HOURS       DAYS        YEARS
                    -----------------------------------------------------------
   TIME STEP LENGTH  86400.      1440.0      24.000      1.0000     2.73785E-03
 STRESS PERIOD TIME 2.85120E+06  47520.      792.00      33.000     9.03491E-02
         TOTAL TIME 2.93760E+06  48960.      816.00      34.000     9.30869E-02
1
 
 SOLVING FOR HEAD 

 OUTPUT CONTROL FOR STRESS PERIOD    2   TIME STEP  34
    SAVE HEAD FOR ALL LAYERS
    SAVE DRAWDOWN FOR ALL LAYERS
    SAVE BUDGET
    PRINT HEAD FOR ALL LAYERS
    PRINT BUDGET
 UBDSV1 SAVING "         STORAGE" ON UNIT  53 AT TIME STEP 34, STRESS PERIOD   2
 UBDSV2 SAVING "   CONSTANT HEAD" ON UNIT  53 AT TIME STEP 34, STRESS PERIOD   2
 UBDSV1 SAVING "FLOW RIGHT FACE " ON UNIT  53 AT TIME STEP 34, STRESS PERIOD   2
 UBDSV1 SAVING "FLOW FRONT FACE " ON UNIT  53 AT TIME STEP 34, STRESS PERIOD   2
1
              HEAD IN LAYER   1 AT END OF TIME STEP  34 IN STRESS PERIOD    2
  ---------------------------------------------------------------------------

            1           2           3           4           5           6           7           8           9          10
           11          12          13          14          15          16          17          18          19          20
           21          22          23          24          25          26          27          28          29          30
           31          32          33          34          35          36          37          38          39          40
           41          42          43          44          45          46          47          48          49          50
 ........................................................................................................................
   1    10.00       9.959       9.900       9.833       9.768       9.694       9.624       9.555       9.468       9.382    
        9.316       9.251       9.184       9.119       9.014       8.887       8.746       8.634       8.577       8.509    
        8.429       8.364       8.301       8.227       8.128       7.932       7.711       7.556       7.404       7.261    
        7.074       6.775       6.393       5.968       5.528       5.060       4.597       4.211       3.708       3.160    
        2.711       2.281       1.804       1.405       1.159      0.9507      0.7855      0.6658      0.4469       0.000    
   2    10.00       9.958       9.905       9.837       9.771       9.706       9.636       9.545       9.450       9.380    
        9.322       9.267       9.211       9.130       9.010       8.877       8.745       8.634       8.575       8.500    
        8.419       8.370       8.319       8.242       8.116       7.925       7.725       7.565       7.411       7.272    
        7.063       6.751       6.350       5.866       5.397       4.944       4.543       4.170       3.657       3.128    
        2.677       2.194       1.760       1.446       1.214       1.035      0.8303      0.6481      0.3615       0.000    
   3    10.00       9.952       9.899       9.839       9.781       9.715       9.626       9.530       9.463       9.399    
        9.335       9.284       9.235       9.157       9.034       8.871       8.726       8.637       8.567       8.491    
        8.425       8.374       8.321       8.219       8.083       7.913       7.739       7.613       7.434       7.252    
        6.990       6.620       6.163       5.695       5.278       4.855       4.462       4.062       3.531       3.041    
        2.654       2.208       1.810       1.522       1.292       1.107      0.8639      0.5792      0.2626       0.000    
   4    10.00       9.952       9.900       9.842       9.776       9.699       9.608       9.534       9.476       9.411    
        9.355       9.313       9.258       9.170       9.050       8.876       8.725       8.642       8.564       8.496    
        8.425       8.362       8.295       8.188       8.053       7.901       7.744       7.589       7.432       7.225    
        6.897       6.409       5.924       5.569       5.220       4.783       4.311       3.842       3.418       3.046    
        2.684       2.270       1.895       1.635       1.376       1.140      0.8394      0.5211      0.2496       0.000    
   5    10.00       9.949       9.896       9.831       9.765       9.693       9.611       9.547       9.487       9.426    
        9.378       9.336       9.264       9.161       9.029       8.871       8.743       8.652       8.575       8.483    
        8.399       8.331       8.250       8.144       8.024       7.869       7.713       7.570       7.411       7.161    
        6.692       6.148       5.760       5.481       5.136       4.662       4.174       3.748       3.429       3.093    
        2.737       2.355       1.983       1.741       1.463       1.122      0.7642      0.4647      0.2337       0.000    
   6    10.00       9.942       9.880       9.825       9.764       9.687       9.617       9.563       9.499       9.442    
        9.396       9.346       9.255       9.140       9.024       8.892       8.763       8.658       8.556       8.450    
        8.366       8.287       8.215       8.121       7.968       7.815       7.689       7.544       7.324       6.947    
        6.432       5.939       5.616       5.374       5.062       4.594       4.107       3.746       3.476       3.172    
        2.845       2.508       2.127       1.803       1.434       1.059      0.6752      0.4012      0.2209       0.000    
   7    10.00       9.930       9.870       9.819       9.757       9.692       9.630       9.578       9.520       9.464    
        9.407       9.331       9.232       9.123       9.014       8.910       8.775       8.632       8.516       8.412    
        8.323       8.247       8.185       8.067       7.911       7.782       7.654       7.461       7.111       6.630    
        6.137       5.737       5.516       5.300       4.938       4.500       4.172       3.821       3.525       3.325    
        3.014       2.653       2.204       1.742       1.330      0.9198      0.5819      0.4042      0.2081       0.000    
   8    10.00       9.930       9.875       9.818       9.755       9.697       9.643       9.591       9.537       9.484    
        9.409       9.313       9.215       9.112       9.011       8.895       8.727       8.576       8.481       8.381    
        8.282       8.216       8.126       8.000       7.864       7.729       7.516       7.218       6.779       6.357    
        5.985       5.673       5.469       5.221       4.836       4.473       4.176       3.917       3.686       3.455    
        3.152       2.698       2.147       1.654       1.225      0.8615      0.6162      0.3961      0.1899       0.000    
   9    10.00       9.941       9.875       9.812       9.765       9.717       9.663       9.608       9.549       9.491    
        9.405       9.296       9.189       9.087       8.980       8.842       8.680       8.542       8.439       8.336    
        8.248       8.164       8.042       7.922       7.797       7.633       7.328       6.928       6.518       6.209    
        5.902       5.641       5.416       5.106       4.747       4.442       4.216       4.023       3.816       3.563    
        3.200       2.704       2.143       1.653       1.235      0.8808      0.6219      0.3997      0.2044       0.000    
  10    10.00       9.939       9.869       9.817       9.774       9.728       9.679       9.632       9.563       9.479    
        9.375       9.261       9.159       9.064       8.953       8.785       8.615       8.495       8.399       8.303    
        8.220       8.104       7.969       7.835       7.691       7.456       7.068       6.653       6.300       6.051    
        5.852       5.628       5.358       5.042       4.706       4.446       4.271       4.103       3.880       3.590    
        3.175       2.661       2.148       1.729       1.337      0.9698      0.6416      0.4246      0.2281       0.000    
  11    10.00       9.926       9.869       9.827       9.784       9.745       9.700       9.634       9.541       9.447    
        9.343       9.231       9.138       9.023       8.874       8.714       8.573       8.466       8.379       8.281    
        8.158       8.011       7.831       7.678       7.441       7.116       6.784       6.474       6.174       5.985    
        5.830       5.550       5.252       4.991       4.730       4.526       4.343       4.130       3.855       3.505    
        3.115       2.718       2.224       1.811       1.438       1.073      0.7211      0.4170      0.1749       0.000    
  12    10.00       9.928       9.876       9.831       9.795       9.754       9.703       9.611       9.504       9.414    
        9.318       9.202       9.088       8.953       8.822       8.675       8.539       8.446       8.350       8.217    
        8.017       7.800       7.589       7.376       7.061       6.813       6.619       6.318       6.066       5.917    
        5.740       5.484       5.234       4.989       4.798       4.604       4.372       4.112       3.779       3.428    
        3.097       2.738       2.261       1.855       1.504       1.122      0.7590      0.3935      0.1306       0.000    
  13    10.00       9.942       9.893       9.845       9.802       9.754       9.673       9.569       9.468       9.376    
        9.268       9.156       9.039       8.898       8.754       8.616       8.517       8.403       8.278       8.022    
        7.723       7.493       7.259       6.977       6.733       6.609       6.393       6.127       5.984       5.846    
        5.636       5.409       5.210       5.023       4.857       4.678       4.402       4.050       3.729       3.398    
        3.081       2.709       2.199       1.821       1.519       1.113      0.6981      0.3400      0.1041       0.000    
  14    10.00       9.955       9.913       9.863       9.804       9.725       9.620       9.516       9.426       9.325    
        9.215       9.110       8.978       8.832       8.705       8.584       8.438       8.293       8.049       7.671    
        7.383       7.158       6.848       6.624       6.505       6.392       6.178       6.010       5.875       5.734    
        5.549       5.379       5.234       5.068       4.888       4.708       4.399       4.016       3.685       3.344    
        3.020       2.558       2.072       1.775       1.432       1.067      0.6997      0.3151      8.9743E-02   0.000    
  15    10.00       9.964       9.920       9.865       9.795       9.681       9.554       9.462       9.378       9.279    
        9.193       9.086       8.918       8.752       8.636       8.455       8.270       8.117       7.747       7.332    
        7.069       6.771       6.504       6.416       6.349       6.209       6.027       5.869       5.763       5.651    
        5.505       5.378       5.256       5.109       4.930       4.712       4.354       3.932       3.584       3.272    
        2.925       2.460       2.076       1.706       1.298      0.9765      0.6257      0.2891      9.7819E-02   0.000    
  16    10.00       9.971       9.924       9.856       9.753       9.618       9.505       9.432       9.358       9.259    
        9.156       9.000       8.794       8.634       8.470       8.261       8.136       7.832       7.312       6.945    
        6.709       6.449       6.349       6.294       6.178       6.000       5.856       5.773       5.713       5.615    
        5.491       5.374       5.272       5.125       4.912       4.622       4.216       3.853       3.576       3.246    
        2.844       2.386       1.975       1.572       1.222      0.8654      0.5617      0.2922      0.1043       0.000    
  17    10.00       9.966       9.910       9.820       9.705       9.565       9.465       9.402       9.315       9.211    
        9.031       8.815       8.642       8.479       8.268       8.060       7.802       7.317       6.876       6.642    
        6.454       6.310       6.239       6.119       5.941       5.814       5.768       5.735       5.676       5.574    
        5.465       5.362       5.254       5.111       4.813       4.436       4.122       3.883       3.615       3.218    
        2.709       2.261       1.880       1.502       1.096      0.7223      0.4790      0.2655      0.1106       0.000    
  18    10.00       9.953       9.881       9.777       9.626       9.509       9.439       9.346       9.241       9.087    
        8.860       8.680       8.517       8.273       7.997       7.710       7.346       6.918       6.644       6.461    
        6.316       6.190       6.077       5.917       5.791       5.749       5.727       5.697       5.627       5.530    
        5.436       5.333       5.197       4.978       4.674       4.368       4.120       3.924       3.588       3.104    
        2.613       2.145       1.762       1.407       1.018      0.6666      0.4051      0.2220      0.1036       0.000    
  19    10.00       9.937       9.854       9.703       9.554       9.485       9.398       9.278       9.151       8.977    
        8.776       8.598       8.341       7.992       7.703       7.417       7.024       6.670       6.493       6.373    
        6.220       6.062       5.934       5.798       5.728       5.706       5.679       5.632       5.555       5.473    
        5.383       5.271       5.094       4.869       4.618       4.358       4.144       3.894       3.421       2.944    
        2.557       2.079       1.663       1.318      0.9354      0.6009      0.3646      0.2107      0.1055       0.000    
  20    10.00       9.919       9.793       9.636       9.526       9.449       9.352       9.225       9.074       8.913    
        8.703       8.439       8.090       7.768       7.510       7.166       6.804       6.621       6.471       6.308    
        6.143       5.977       5.821       5.719       5.672       5.633       5.581       5.532       5.461       5.389    
        5.304       5.193       5.017       4.815       4.589       4.366       4.139       3.753       3.257       2.851    
        2.423       1.960       1.591       1.246      0.8896      0.5400      0.3167      0.2126      0.1074       0.000    
  21    10.00       9.872       9.742       9.614       9.500       9.413       9.308       9.146       8.993       8.837    
        8.565       8.232       7.902       7.636       7.357       7.025       6.766       6.605       6.434       6.255    
        6.054       5.867       5.729       5.625       5.548       5.481       5.439       5.397       5.325       5.271    
        5.209       5.096       4.944       4.768       4.566       4.351       4.031       3.640       3.208       2.726    
        2.295       1.861       1.542       1.225      0.7728      0.4557      0.3243      0.2366      0.1137       0.000    
  22    10.00       9.853       9.701       9.577       9.480       9.376       9.223       9.062       8.926       8.719    
        8.432       8.083       7.796       7.574       7.268       6.961       6.741       6.576       6.405       6.191    
        5.959       5.770       5.592       5.434       5.331       5.283       5.251       5.199       5.173       5.140    
        5.091       5.001       4.885       4.722       4.531       4.322       3.988       3.594       3.085       2.610    
        2.238       1.844       1.490       1.020      0.6352      0.4564      0.3429      0.2280      9.0473E-02   0.000    
  23    10.00       9.820       9.673       9.570       9.464       9.310       9.137       9.011       8.839       8.623    
        8.329       8.018       7.796       7.515       7.185       6.917       6.731       6.579       6.387       6.130    
        5.883       5.660       5.426       5.147       4.899       4.853       4.927       4.963       5.006       5.016    
        4.989       4.923       4.821       4.688       4.504       4.283       3.970       3.478       2.943       2.551    
        2.193       1.745       1.238      0.8315      0.6187      0.4678      0.3420      0.2168      0.1009       0.000    
  24    10.00       9.796       9.689       9.571       9.422       9.253       9.116       8.979       8.809       8.560    
        8.289       8.047       7.803       7.465       7.115       6.902       6.749       6.592       6.360       6.101    
        5.856       5.601       5.243       4.601       3.634       3.967       4.414       4.693       4.838       4.892    
        4.896       4.849       4.771       4.634       4.457       4.234       3.844       3.324       2.868       2.451    
        2.017       1.544       1.095      0.7918      0.6146      0.4644      0.3336      0.2527      0.1391       0.000    
  25    10.00       9.822       9.710       9.567       9.411       9.259       9.119       8.988       8.781       8.532    
        8.304       8.071       7.773       7.401       7.130       6.937       6.766       6.581       6.366       6.126    
        5.863       5.609       4.957       3.588      0.4728       3.012       3.972       4.451       4.699       4.804    
        4.824       4.795       4.715       4.555       4.367       4.096       3.693       3.193       2.779       2.329    
        1.828       1.382       1.017      0.7821      0.6385      0.4989      0.3644      0.2685      0.1752       0.000    
  26    10.00       9.848       9.742       9.589       9.428       9.294       9.149       8.984       8.771       8.577    
        8.381       8.071       7.695       7.378       7.180       7.007       6.805       6.566       6.337       6.132    
        5.929       5.652       5.054       4.065       3.022       3.543       4.101       4.448       4.658       4.766    
        4.780       4.747       4.647       4.490       4.307       4.013       3.485       3.025       2.678       2.129    
        1.586       1.219       1.005      0.8476      0.6952      0.5406      0.4006      0.2934      0.1752       0.000    
  27    10.00       9.882       9.753       9.622       9.478       9.324       9.179       9.019       8.829       8.644    
        8.381       8.014       7.688       7.431       7.257       7.064       6.798       6.536       6.350       6.187    
        6.019       5.735       5.289       4.748       4.173       4.199       4.397       4.578       4.708       4.764    
        4.757       4.714       4.616       4.456       4.210       3.751       3.254       2.895       2.362       1.826    
        1.440       1.202       1.046      0.9132      0.7727      0.5945      0.4278      0.3202      0.2152       0.000    
  28    10.00       9.892       9.783       9.658       9.528       9.382       9.232       9.070       8.891       8.677    
        8.354       8.021       7.738       7.492       7.313       7.117       6.891       6.635       6.391       6.231    
        6.081       5.879       5.585       5.185       4.826       4.666       4.679       4.759       4.786       4.789    
        4.753       4.691       4.573       4.350       3.986       3.508       3.089       2.601       2.078       1.725    
        1.446       1.250       1.096      0.9642      0.8198      0.6493      0.4844      0.3639      0.2219       0.000    
  29    10.00       9.897       9.794       9.700       9.574       9.441       9.297       9.134       8.944       8.657    
        8.339       8.048       7.779       7.577       7.370       7.159       6.953       6.749       6.516       6.311    
        6.152       5.982       5.781       5.538       5.213       5.038       4.970       4.937       4.907       4.837    
        4.751       4.631       4.480       4.175       3.745       3.319       2.889       2.399       2.004       1.750    
        1.522       1.307       1.139       1.010      0.8697      0.6949      0.5252      0.3843      0.2240       0.000    
  30    10.00       9.906       9.820       9.738       9.628       9.505       9.377       9.197       8.959       8.666    
        8.338       8.042       7.818       7.617       7.413       7.209       7.037       6.864       6.656       6.438    
        6.249       6.094       5.921       5.746       5.537       5.343       5.260       5.132       5.036       4.892    
        4.721       4.521       4.307       3.984       3.640       3.242       2.800       2.354       2.066       1.834    
        1.577       1.365       1.204       1.050      0.8920      0.7372      0.5593      0.4004      0.2419       0.000    
  31    10.00       9.922       9.848       9.771       9.691       9.594       9.453       9.240       8.964       8.660    
        8.344       8.068       7.855       7.649       7.468       7.279       7.102       6.970       6.769       6.561    
        6.381       6.220       6.067       5.902       5.759       5.606       5.456       5.305       5.124       4.915    
        4.657       4.403       4.183       3.932       3.592       3.179       2.761       2.396       2.166       1.956    
        1.689       1.446       1.257       1.095      0.9372      0.7733      0.5950      0.4275      0.2353       0.000    
  32    10.00       9.934       9.877       9.810       9.732       9.644       9.504       9.261       9.002       8.725    
        8.392       8.106       7.893       7.700       7.516       7.357       7.201       7.036       6.873       6.677    
        6.486       6.312       6.157       5.997       5.869       5.763       5.597       5.402       5.150       4.869    
        4.601       4.363       4.137       3.898       3.575       3.205       2.855       2.537       2.290       2.054    
        1.805       1.551       1.350       1.160      0.9797      0.8317      0.6491      0.4277      0.2123       0.000    
  33    10.00       9.943       9.896       9.842       9.766       9.666       9.487       9.252       9.035       8.778    
        8.453       8.170       7.950       7.738       7.567       7.432       7.295       7.131       6.952       6.768    
        6.570       6.382       6.198       6.046       5.945       5.838       5.649       5.391       5.129       4.869    
        4.613       4.400       4.176       3.880       3.576       3.243       2.944       2.688       2.430       2.172    
        1.939       1.698       1.477       1.278       1.078      0.9023      0.6973      0.4362      0.2054       0.000    
  34    10.00       9.949       9.917       9.870       9.776       9.637       9.463       9.290       9.067       8.788    
        8.501       8.224       7.987       7.775       7.623       7.518       7.372       7.206       7.008       6.832    
        6.648       6.426       6.243       6.105       5.999       5.857       5.630       5.402       5.137       4.852    
        4.637       4.456       4.248       3.957       3.648       3.345       3.069       2.838       2.574       2.314    
        2.092       1.870       1.636       1.432       1.220       1.013      0.7526      0.4834      0.2549       0.000    
  35    10.00       9.958       9.921       9.861       9.744       9.596       9.469       9.321       9.116       8.814    
        8.508       8.250       8.010       7.829       7.702       7.584       7.430       7.244       7.051       6.854    
        6.669       6.467       6.280       6.149       6.033       5.893       5.659       5.386       5.103       4.835    
        4.676       4.500       4.278       4.055       3.793       3.472       3.195       3.008       2.740       2.450    
        2.242       2.020       1.797       1.597       1.360       1.129      0.8671      0.5787      0.2892       0.000    
  36    10.00       9.954       9.903       9.834       9.718       9.578       9.463       9.324       9.117       8.834    
        8.513       8.232       8.052       7.911       7.791       7.644       7.458       7.274       7.063       6.809    
        6.611       6.449       6.290       6.175       6.064       5.896       5.640       5.359       5.070       4.834    
        4.683       4.532       4.328       4.119       3.894       3.603       3.327       3.122       2.888       2.576    
        2.342       2.118       1.890       1.725       1.497       1.241      0.9799      0.6787      0.3452       0.000    
  37    10.00       9.940       9.883       9.808       9.690       9.561       9.432       9.297       9.106       8.799    
        8.474       8.243       8.133       7.998       7.839       7.689       7.472       7.245       6.977       6.718    
        6.574       6.445       6.295       6.173       6.041       5.834       5.597       5.298       5.047       4.876    
        4.725       4.561       4.353       4.170       3.937       3.659       3.441       3.243       2.983       2.672    
        2.392       2.173       1.993       1.808       1.591       1.354       1.103      0.7660      0.4150       0.000    
  38    10.00       9.933       9.859       9.778       9.669       9.543       9.399       9.257       9.052       8.768    
        8.518       8.334       8.194       8.070       7.888       7.652       7.401       7.118       6.827       6.666    
        6.555       6.394       6.246       6.143       5.995       5.779       5.491       5.226       5.084       4.947    
        4.779       4.594       4.395       4.209       3.980       3.726       3.531       3.329       3.020       2.695    
        2.452       2.250       2.066       1.882       1.689       1.460       1.201      0.8763      0.4546       0.000    
  39    10.00       9.915       9.839       9.759       9.651       9.509       9.353       9.202       9.015       8.785    
        8.590       8.452       8.294       8.113       7.839       7.527       7.213       6.908       6.734       6.636    
        6.478       6.304       6.197       6.101       5.958       5.708       5.428       5.260       5.136       4.991    
        4.811       4.635       4.434       4.235       4.041       3.831       3.607       3.371       3.053       2.733    
        2.478       2.275       2.132       1.986       1.777       1.543       1.281      0.9284      0.4546       0.000    
  40    10.00       9.900       9.826       9.745       9.635       9.486       9.325       9.173       9.013       8.822    
        8.660       8.540       8.338       8.040       7.686       7.335       7.018       6.813       6.703       6.577    
        6.402       6.253       6.160       6.038       5.873       5.669       5.488       5.322       5.174       5.038    
        4.871       4.675       4.471       4.284       4.106       3.893       3.651       3.415       3.069       2.720    
        2.490       2.321       2.173       2.046       1.835       1.575       1.335      0.9646      0.4762       0.000    
  41    10.00       9.907       9.820       9.730       9.608       9.472       9.331       9.194       9.041       8.869    
        8.715       8.565       8.283       7.899       7.508       7.191       6.946       6.775       6.660       6.514    
        6.336       6.210       6.103       5.974       5.830       5.687       5.554       5.395       5.218       5.061    
        4.910       4.723       4.518       4.348       4.161       3.954       3.707       3.378       2.995       2.727    
        2.540       2.364       2.228       2.069       1.845       1.588       1.376       1.024      0.5242       0.000    
  42    10.00       9.910       9.813       9.729       9.623       9.496       9.355       9.201       9.064       8.930    
        8.742       8.467       8.111       7.714       7.363       7.122       6.910       6.751       6.614       6.441    
        6.277       6.160       6.049       5.958       5.839       5.734       5.611       5.427       5.238       5.098    
        4.966       4.765       4.544       4.385       4.225       3.992       3.675       3.281       2.941       2.737    
        2.588       2.439       2.270       2.064       1.832       1.625       1.410       1.066      0.5485       0.000    
  43    10.00       9.911       9.821       9.736       9.651       9.537       9.396       9.244       9.092       8.899    
        8.623       8.305       7.941       7.560       7.291       7.089       6.889       6.722       6.557       6.384    
        6.232       6.122       6.042       5.972       5.868       5.755       5.634       5.454       5.286       5.172    
        5.004       4.783       4.576       4.418       4.235       3.950       3.577       3.198       2.962       2.801    
        2.643       2.482       2.275       2.053       1.841       1.641       1.448       1.063      0.4787       0.000    
  44    10.00       9.905       9.823       9.749       9.655       9.568       9.447       9.260       9.054       8.783    
        8.503       8.169       7.771       7.495       7.288       7.065       6.847       6.654       6.475       6.322    
        6.214       6.128       6.053       5.981       5.891       5.776       5.634       5.492       5.362       5.218    
        5.057       4.857       4.623       4.401       4.186       3.895       3.506       3.179       2.990       2.834    
        2.683       2.505       2.298       2.099       1.878       1.656       1.405      0.9099      0.4021       0.000    
  45    10.00       9.905       9.837       9.752       9.663       9.584       9.407       9.193       8.949       8.682    
        8.447       8.046       7.677       7.471       7.259       7.014       6.767       6.570       6.413       6.304    
        6.228       6.152       6.074       5.988       5.891       5.785       5.667       5.547       5.441       5.293    
        5.100       4.886       4.649       4.381       4.136       3.821       3.456       3.198       3.042       2.886    
        2.690       2.485       2.303       2.124       1.931       1.691       1.267      0.7626      0.3863       0.000    
  46    10.00       9.921       9.849       9.758       9.660       9.511       9.324       9.146       8.923       8.661    
        8.322       7.954       7.658       7.401       7.183       6.942       6.695       6.542       6.425       6.325    
        6.254       6.184       6.092       5.988       5.893       5.799       5.702       5.596       5.489       5.353    
        5.173       4.950       4.687       4.384       4.044       3.705       3.439       3.263       3.091       2.911    
        2.685       2.471       2.291       2.146       1.939       1.605       1.135      0.7183      0.3650       0.000    
  47    10.00       9.938       9.872       9.776       9.607       9.427       9.266       9.114       8.914       8.587    
        8.222       7.879       7.595       7.379       7.146       6.878       6.666       6.529       6.437       6.354    
        6.279       6.197       6.106       6.004       5.910       5.829       5.744       5.638       5.515       5.380    
        5.221       5.023       4.683       4.281       3.962       3.712       3.481       3.331       3.172       2.922    
        2.653       2.429       2.260       2.143       1.883       1.484       1.054      0.6912      0.3547       0.000    
  48    10.00       9.946       9.875       9.732       9.560       9.411       9.240       9.086       8.872       8.528    
        8.130       7.819       7.589       7.331       7.060       6.821       6.661       6.528       6.439       6.378    
        6.302       6.204       6.103       6.015       5.940       5.871       5.790       5.673       5.527       5.370    
        5.205       4.978       4.627       4.297       4.018       3.770       3.554       3.384       3.179       2.880    
        2.595       2.415       2.274       2.054       1.707       1.351       1.006      0.6960      0.3744       0.000    
  49    10.00       9.943       9.841       9.713       9.573       9.400       9.227       9.054       8.789       8.425    
        8.082       7.792       7.514       7.269       7.061       6.835       6.629       6.509       6.450       6.391    
        6.320       6.209       6.098       6.024       5.962       5.908       5.816       5.675       5.510       5.360    
        5.187       4.909       4.612       4.392       4.136       3.845       3.584       3.377       3.141       2.822    
        2.592       2.435       2.225       1.894       1.585       1.294      0.9948      0.6959      0.3732       0.000    
  50    10.00       9.935       9.830       9.699       9.572       9.410       9.217       9.001       8.722       8.433    
        8.075       7.712       7.454       7.259       7.083       6.829       6.601       6.511       6.458       6.399    
        6.328       6.214       6.100       6.029       5.976       5.926       5.822       5.660       5.493       5.350    
        5.173       4.887       4.657       4.459       4.191       3.902       3.628       3.346       3.023       2.756    
        2.638       2.459       2.136       1.803       1.573       1.292       1.009      0.6816      0.3039       0.000    

 HEAD WILL BE SAVED ON UNIT   51 AT END OF TIME STEP  34, STRESS PERIOD    2

 DRAWDOWN WILL BE SAVED ON UNIT   52 AT END OF TIME STEP  34, STRESS PERIOD    2
1
  VOLUMETRIC BUDGET FOR ENTIRE MODEL AT END OF TIME STEP 34 IN STRESS PERIOD   2
  ------------------------------------------------------------------------------

     CUMULATIVE VOLUMES      L**3       RATES FOR THIS TIME STEP      L**3/T
     ------------------                 ------------------------

           IN:                                      IN:
           ---                                      ---
             STORAGE =       16904.9512               STORAGE =         487.8708
       CONSTANT HEAD =       20986.9102         CONSTANT HEAD =         608.2081
               WELLS =           0.0000                 WELLS =           0.0000

            TOTAL IN =       37891.8594              TOTAL IN =        1096.0789

          OUT:                                     OUT:
          ----                                     ----
             STORAGE =       9.4320E-03               STORAGE =           0.0000
       CONSTANT HEAD =       20891.8496         CONSTANT HEAD =         596.0784
               WELLS =       17000.0000                 WELLS =         500.0000

           TOTAL OUT =       37891.8594             TOTAL OUT =        1096.0784

            IN - OUT =           0.0000              IN - OUT =       4.8828E-04

 PERCENT DISCREPANCY =           0.00     PERCENT DISCREPANCY =           0.00






          TIME SUMMARY AT END OF TIME STEP  34 IN STRESS PERIOD    2
                    SECONDS     MINUTES      HOURS       DAYS        YEARS
                    -----------------------------------------------------------
   TIME STEP LENGTH  86400.      1440.0      24.000      1.0000     2.73785E-03
 STRESS PERIOD TIME 2.93760E+06  48960.      816.00      34.000     9.30869E-02
         TOTAL TIME 3.02400E+06  50400.      840.00      35.000     9.58248E-02
1
 
 SOLVING FOR HEAD 

 OUTPUT CONTROL FOR STRESS PERIOD    2   TIME STEP  35
    SAVE HEAD FOR ALL LAYERS
    SAVE DRAWDOWN FOR ALL LAYERS
    SAVE BUDGET
    PRINT HEAD FOR ALL LAYERS
    PRINT BUDGET
 UBDSV1 SAVING "         STORAGE" ON UNIT  53 AT TIME STEP 35, STRESS PERIOD   2
 UBDSV2 SAVING "   CONSTANT HEAD" ON UNIT  53 AT TIME STEP 35, STRESS PERIOD   2
 UBDSV1 SAVING "FLOW RIGHT FACE " ON UNIT  53 AT TIME STEP 35, STRESS PERIOD   2
 UBDSV1 SAVING "FLOW FRONT FACE " ON UNIT  53 AT TIME STEP 35, STRESS PERIOD   2
1
              HEAD IN LAYER   1 AT END OF TIME STEP  35 IN STRESS PERIOD    2
  ---------------------------------------------------------------------------

            1           2           3           4           5           6           7           8           9          10
           11          12          13          14          15          16          17          18          19          20
           21          22          23          24          25          26          27          28          29          30
           31          32          33          34          35          36          37          38          39          40
           41          42          43          44          45          46          47          48          49          50
 ........................................................................................................................
   1    10.00       9.959       9.900       9.833       9.768       9.694       9.623       9.554       9.467       9.381    
        9.315       9.250       9.183       9.118       9.012       8.885       8.744       8.632       8.574       8.507    
        8.426       8.362       8.298       8.224       8.125       7.929       7.708       7.553       7.402       7.258    
        7.072       6.773       6.391       5.967       5.527       5.059       4.596       4.210       3.707       3.159    
        2.710       2.281       1.804       1.405       1.159      0.9505      0.7853      0.6657      0.4468       0.000    
   2    10.00       9.958       9.905       9.837       9.771       9.705       9.636       9.545       9.449       9.379    
        9.321       9.265       9.210       9.129       9.008       8.875       8.742       8.632       8.573       8.497    
        8.416       8.368       8.316       8.239       8.114       7.923       7.722       7.562       7.409       7.269    
        7.061       6.749       6.348       5.865       5.395       4.943       4.542       4.169       3.657       3.128    
        2.677       2.194       1.759       1.446       1.214       1.035      0.8301      0.6479      0.3614       0.000    
   3    10.00       9.952       9.899       9.839       9.781       9.715       9.625       9.529       9.462       9.398    
        9.334       9.283       9.234       9.156       9.033       8.869       8.724       8.635       8.565       8.488    
        8.422       8.372       8.319       8.216       8.080       7.910       7.736       7.610       7.432       7.249    
        6.988       6.618       6.161       5.694       5.277       4.854       4.461       4.061       3.530       3.040    
        2.653       2.207       1.809       1.522       1.292       1.106      0.8637      0.5791      0.2625       0.000    
   4    10.00       9.952       9.900       9.842       9.776       9.699       9.607       9.534       9.475       9.410    
        9.354       9.311       9.256       9.168       9.048       8.874       8.723       8.639       8.561       8.493    
        8.422       8.359       8.292       8.185       8.050       7.898       7.741       7.586       7.429       7.222    
        6.894       6.406       5.922       5.567       5.219       4.782       4.309       3.841       3.416       3.045    
        2.683       2.269       1.894       1.635       1.376       1.139      0.8392      0.5209      0.2495       0.000    
   5    10.00       9.949       9.896       9.831       9.764       9.693       9.610       9.546       9.486       9.425    
        9.376       9.335       9.263       9.160       9.028       8.869       8.741       8.649       8.572       8.480    
        8.396       8.328       8.246       8.141       8.021       7.866       7.709       7.567       7.408       7.158    
        6.689       6.144       5.757       5.478       5.133       4.660       4.172       3.746       3.428       3.092    
        2.736       2.354       1.982       1.741       1.463       1.122      0.7640      0.4646      0.2337       0.000    
   6    10.00       9.942       9.879       9.825       9.764       9.686       9.616       9.562       9.498       9.441    
        9.395       9.344       9.254       9.138       9.023       8.890       8.761       8.655       8.553       8.447    
        8.363       8.283       8.212       8.117       7.964       7.812       7.685       7.541       7.320       6.943    
        6.428       5.935       5.612       5.370       5.059       4.591       4.104       3.744       3.474       3.170    
        2.843       2.507       2.126       1.802       1.434       1.058      0.6750      0.4011      0.2208       0.000    
   7    10.00       9.930       9.870       9.819       9.756       9.691       9.629       9.578       9.519       9.463    
        9.406       9.330       9.230       9.122       9.012       8.908       8.773       8.630       8.513       8.409    
        8.320       8.243       8.181       8.063       7.907       7.778       7.650       7.457       7.106       6.625    
        6.133       5.732       5.512       5.296       4.934       4.497       4.168       3.818       3.523       3.323    
        3.013       2.652       2.204       1.742       1.330      0.9195      0.5817      0.4041      0.2080       0.000    
   8    10.00       9.930       9.875       9.817       9.754       9.697       9.642       9.590       9.537       9.483    
        9.408       9.311       9.213       9.110       9.009       8.892       8.724       8.573       8.478       8.378    
        8.278       8.212       8.122       7.996       7.860       7.725       7.511       7.212       6.773       6.351    
        5.980       5.668       5.464       5.217       4.831       4.469       4.173       3.914       3.683       3.453    
        3.150       2.696       2.146       1.653       1.225      0.8612      0.6160      0.3960      0.1898       0.000    
   9    10.00       9.941       9.875       9.811       9.765       9.717       9.662       9.607       9.548       9.490    
        9.404       9.294       9.188       9.085       8.977       8.840       8.677       8.538       8.435       8.332    
        8.244       8.159       8.037       7.917       7.792       7.628       7.322       6.922       6.511       6.202    
        5.895       5.634       5.410       5.100       4.743       4.438       4.212       4.019       3.813       3.561    
        3.198       2.703       2.142       1.652       1.234      0.8806      0.6218      0.3996      0.2043       0.000    
  10    10.00       9.938       9.869       9.817       9.774       9.728       9.678       9.631       9.562       9.478    
        9.374       9.259       9.157       9.061       8.951       8.782       8.611       8.491       8.395       8.299    
        8.215       8.099       7.964       7.829       7.685       7.449       7.061       6.645       6.292       6.043    
        5.844       5.621       5.351       5.036       4.700       4.441       4.267       4.099       3.877       3.587    
        3.173       2.660       2.147       1.728       1.337      0.9695      0.6414      0.4245      0.2281       0.000    
  11    10.00       9.926       9.869       9.826       9.784       9.744       9.699       9.633       9.540       9.445    
        9.341       9.229       9.136       9.021       8.871       8.710       8.569       8.462       8.374       8.276    
        8.153       8.006       7.825       7.672       7.433       7.107       6.774       6.464       6.165       5.976    
        5.821       5.541       5.244       4.984       4.723       4.521       4.338       4.125       3.851       3.502    
        3.113       2.716       2.223       1.810       1.437       1.073      0.7209      0.4169      0.1748       0.000    
  12    10.00       9.928       9.876       9.831       9.795       9.754       9.702       9.610       9.503       9.412    
        9.316       9.200       9.086       8.950       8.818       8.671       8.535       8.441       8.345       8.211    
        8.011       7.793       7.580       7.367       7.050       6.802       6.608       6.307       6.055       5.907    
        5.731       5.475       5.225       4.981       4.791       4.598       4.367       4.108       3.775       3.425    
        3.095       2.736       2.260       1.854       1.503       1.121      0.7588      0.3934      0.1305       0.000    
  13    10.00       9.942       9.892       9.845       9.802       9.754       9.672       9.567       9.466       9.374    
        9.266       9.153       9.036       8.895       8.750       8.611       8.512       8.398       8.272       8.015    
        7.715       7.484       7.248       6.965       6.720       6.596       6.380       6.114       5.972       5.834    
        5.625       5.399       5.201       5.014       4.849       4.670       4.395       4.045       3.725       3.394    
        3.078       2.707       2.197       1.820       1.518       1.113      0.6978      0.3399      0.1040       0.000    
  14    10.00       9.955       9.913       9.863       9.804       9.724       9.619       9.515       9.424       9.323    
        9.212       9.107       8.974       8.828       8.700       8.579       8.432       8.286       8.042       7.661    
        7.371       7.146       6.834       6.609       6.491       6.377       6.164       5.996       5.861       5.720    
        5.536       5.367       5.223       5.058       4.879       4.700       4.392       4.010       3.680       3.340    
        3.017       2.556       2.071       1.774       1.431       1.066      0.6994      0.3150      8.9711E-02   0.000    
  15    10.00       9.964       9.920       9.865       9.794       9.680       9.553       9.461       9.376       9.277    
        9.190       9.082       8.914       8.748       8.631       8.448       8.263       8.109       7.737       7.320    
        7.056       6.756       6.488       6.400       6.333       6.194       6.011       5.853       5.747       5.636    
        5.491       5.365       5.244       5.098       4.920       4.704       4.346       3.926       3.579       3.269    
        2.922       2.457       2.075       1.704       1.298      0.9761      0.6254      0.2890      9.7779E-02   0.000    
  16    10.00       9.971       9.924       9.855       9.753       9.617       9.504       9.431       9.356       9.256    
        9.153       8.997       8.789       8.629       8.463       8.253       8.127       7.822       7.298       6.929    
        6.693       6.432       6.332       6.277       6.161       5.983       5.839       5.756       5.697       5.600    
        5.476       5.361       5.259       5.114       4.901       4.613       4.208       3.846       3.571       3.242    
        2.841       2.384       1.973       1.571       1.221      0.8650      0.5614      0.2921      0.1043       0.000    
  17    10.00       9.966       9.910       9.820       9.704       9.564       9.464       9.400       9.313       9.208    
        9.027       8.810       8.635       8.472       8.259       8.050       7.791       7.303       6.859       6.624    
        6.436       6.292       6.221       6.101       5.923       5.795       5.750       5.717       5.659       5.558    
        5.449       5.347       5.240       5.098       4.802       4.426       4.114       3.876       3.609       3.213    
        2.706       2.259       1.878       1.501       1.095      0.7219      0.4788      0.2654      0.1105       0.000    
  18    10.00       9.953       9.881       9.776       9.625       9.508       9.437       9.344       9.238       9.083    
        8.855       8.674       8.510       8.264       7.986       7.697       7.332       6.901       6.626       6.443    
        6.298       6.172       6.058       5.898       5.772       5.730       5.709       5.679       5.610       5.514    
        5.420       5.318       5.183       4.965       4.662       4.358       4.111       3.916       3.582       3.099    
        2.610       2.143       1.760       1.406       1.017      0.6662      0.4049      0.2219      0.1035       0.000    
  19    10.00       9.937       9.854       9.702       9.552       9.484       9.396       9.276       9.148       8.973    
        8.770       8.591       8.332       7.981       7.689       7.402       7.007       6.651       6.474       6.354    
        6.200       6.042       5.914       5.778       5.709       5.686       5.660       5.613       5.536       5.455    
        5.366       5.255       5.079       4.855       4.606       4.348       4.135       3.887       3.416       2.940    
        2.554       2.077       1.662       1.317      0.9347      0.6006      0.3644      0.2106      0.1054       0.000    
  20    10.00       9.918       9.792       9.635       9.525       9.447       9.350       9.222       9.070       8.908    
        8.697       8.431       8.079       7.755       7.495       7.149       6.786       6.602       6.452       6.288    
        6.123       5.958       5.801       5.699       5.652       5.613       5.561       5.513       5.442       5.370    
        5.286       5.176       5.002       4.801       4.577       4.355       4.130       3.746       3.251       2.847    
        2.420       1.958       1.590       1.245      0.8890      0.5397      0.3165      0.2125      0.1073       0.000    
  21    10.00       9.871       9.742       9.613       9.499       9.411       9.306       9.143       8.989       8.832    
        8.558       8.222       7.890       7.622       7.341       7.008       6.747       6.586       6.414       6.235    
        6.034       5.846       5.708       5.605       5.527       5.460       5.419       5.377       5.305       5.251    
        5.190       5.078       4.928       4.753       4.553       4.339       4.022       3.633       3.203       2.723    
        2.293       1.859       1.541       1.224      0.7723      0.4555      0.3242      0.2365      0.1136       0.000    
  22    10.00       9.853       9.700       9.576       9.479       9.374       9.220       9.058       8.921       8.713    
        8.423       8.072       7.783       7.560       7.252       6.943       6.722       6.556       6.386       6.171    
        5.939       5.749       5.571       5.413       5.310       5.262       5.230       5.178       5.152       5.120    
        5.071       4.982       4.868       4.706       4.517       4.310       3.978       3.586       3.080       2.607    
        2.235       1.842       1.488       1.020      0.6348      0.4561      0.3428      0.2278      9.0430E-02   0.000    
  23    10.00       9.820       9.672       9.569       9.463       9.308       9.133       9.006       8.833       8.616    
        8.320       8.006       7.783       7.501       7.168       6.899       6.712       6.560       6.367       6.110    
        5.862       5.639       5.405       5.125       4.877       4.831       4.905       4.941       4.985       4.995    
        4.969       4.904       4.803       4.671       4.489       4.271       3.960       3.471       2.938       2.547    
        2.191       1.744       1.237      0.8310      0.6183      0.4675      0.3418      0.2167      0.1009       0.000    
  24    10.00       9.796       9.688       9.570       9.420       9.250       9.112       8.974       8.803       8.553    
        8.279       8.036       7.790       7.450       7.098       6.885       6.730       6.573       6.341       6.081    
        5.836       5.580       5.221       4.579       3.611       3.943       4.391       4.670       4.816       4.870    
        4.875       4.829       4.753       4.618       4.442       4.221       3.835       3.317       2.863       2.448    
        2.015       1.542       1.095      0.7914      0.6143      0.4642      0.3335      0.2526      0.1390       0.000    
  25    10.00       9.822       9.709       9.566       9.409       9.256       9.115       8.983       8.775       8.525    
        8.295       8.060       7.760       7.386       7.113       6.919       6.748       6.562       6.346       6.106    
        5.842       5.588       4.935       3.565      0.4478       2.988       3.949       4.428       4.676       4.782    
        4.803       4.775       4.696       4.539       4.352       4.084       3.683       3.186       2.775       2.326    
        1.826       1.381       1.016      0.7817      0.6382      0.4987      0.3643      0.2683      0.1751       0.000    
  26    10.00       9.848       9.741       9.587       9.425       9.292       9.145       8.979       8.765       8.570    
        8.372       8.060       7.681       7.363       7.163       6.990       6.787       6.547       6.317       6.112    
        5.908       5.631       5.032       4.042       2.998       3.518       4.077       4.425       4.635       4.744    
        4.758       4.727       4.629       4.473       4.293       4.001       3.477       3.019       2.673       2.126    
        1.585       1.218       1.004      0.8472      0.6949      0.5403      0.4005      0.2932      0.1751       0.000    
  27    10.00       9.881       9.752       9.621       9.476       9.321       9.176       9.014       8.823       8.637    
        8.372       8.003       7.675       7.416       7.242       7.047       6.780       6.517       6.331       6.168    
        5.999       5.714       5.267       4.725       4.149       4.175       4.373       4.554       4.685       4.741    
        4.736       4.694       4.598       4.440       4.196       3.741       3.247       2.890       2.359       1.825    
        1.439       1.201       1.046      0.9127      0.7723      0.5942      0.4277      0.3201      0.2151       0.000    
  28    10.00       9.892       9.782       9.657       9.526       9.379       9.228       9.066       8.886       8.670    
        8.345       8.010       7.726       7.478       7.298       7.101       6.874       6.617       6.372       6.211    
        6.061       5.859       5.564       5.163       4.803       4.642       4.655       4.736       4.763       4.767    
        4.732       4.672       4.556       4.335       3.975       3.500       3.084       2.597       2.076       1.724    
        1.445       1.249       1.096      0.9637      0.8195      0.6490      0.4843      0.3638      0.2218       0.000    
  29    10.00       9.897       9.793       9.699       9.573       9.438       9.293       9.130       8.939       8.650    
        8.330       8.037       7.767       7.563       7.356       7.143       6.936       6.731       6.498       6.292    
        6.132       5.962       5.760       5.516       5.191       5.015       4.947       4.914       4.885       4.816    
        4.732       4.613       4.465       4.163       3.736       3.313       2.884       2.397       2.002       1.748    
        1.521       1.306       1.138       1.010      0.8693      0.6946      0.5250      0.3842      0.2239       0.000    
  30    10.00       9.906       9.820       9.737       9.627       9.503       9.374       9.193       8.954       8.660    
        8.330       8.032       7.806       7.604       7.399       7.194       7.021       6.848       6.638       6.419    
        6.230       6.075       5.901       5.725       5.515       5.322       5.238       5.111       5.015       4.873    
        4.704       4.507       4.295       3.975       3.633       3.237       2.797       2.352       2.065       1.833    
        1.576       1.365       1.204       1.050      0.8916      0.7369      0.5591      0.4002      0.2418       0.000    
  31    10.00       9.922       9.847       9.770       9.690       9.592       9.451       9.237       8.960       8.654    
        8.336       8.059       7.844       7.637       7.455       7.266       7.087       6.954       6.753       6.543    
        6.363       6.201       6.048       5.882       5.740       5.586       5.436       5.285       5.105       4.898    
        4.643       4.392       4.174       3.924       3.586       3.175       2.758       2.394       2.164       1.955    
        1.689       1.445       1.257       1.094      0.9368      0.7731      0.5949      0.4274      0.2352       0.000    
  32    10.00       9.934       9.877       9.809       9.731       9.643       9.502       9.259       8.998       8.720    
        8.384       8.097       7.883       7.689       7.504       7.344       7.187       7.021       6.858       6.660    
        6.469       6.294       6.139       5.979       5.851       5.745       5.578       5.384       5.134       4.856    
        4.590       4.354       4.129       3.892       3.570       3.201       2.852       2.535       2.289       2.053    
        1.805       1.550       1.349       1.160      0.9794      0.8314      0.6490      0.4276      0.2123       0.000    
  33    10.00       9.943       9.896       9.841       9.766       9.665       9.485       9.249       9.032       8.773    
        8.447       8.162       7.941       7.728       7.556       7.421       7.282       7.118       6.938       6.753    
        6.554       6.365       6.181       6.029       5.927       5.821       5.632       5.377       5.116       4.859    
        4.604       4.393       4.170       3.875       3.572       3.240       2.942       2.686       2.428       2.171    
        1.939       1.697       1.477       1.278       1.077      0.9021      0.6971      0.4362      0.2054       0.000    
  34    10.00       9.948       9.917       9.869       9.775       9.636       9.462       9.288       9.064       8.783    
        8.495       8.217       7.979       7.766       7.613       7.507       7.361       7.194       6.995       6.819    
        6.634       6.411       6.228       6.090       5.984       5.842       5.616       5.390       5.126       4.844    
        4.630       4.449       4.242       3.952       3.644       3.342       3.067       2.837       2.572       2.313    
        2.091       1.869       1.636       1.432       1.220       1.013      0.7525      0.4833      0.2548       0.000    
  35    10.00       9.957       9.921       9.860       9.743       9.595       9.468       9.320       9.113       8.811    
        8.503       8.244       8.003       7.820       7.693       7.574       7.420       7.233       7.040       6.842    
        6.656       6.455       6.268       6.136       6.020       5.881       5.647       5.376       5.095       4.829    
        4.671       4.495       4.274       4.052       3.790       3.470       3.193       3.006       2.739       2.450    
        2.241       2.019       1.796       1.596       1.360       1.129      0.8670      0.5786      0.2891       0.000    
  36    10.00       9.954       9.903       9.834       9.717       9.577       9.462       9.322       9.114       8.830    
        8.509       8.226       8.046       7.904       7.783       7.635       7.448       7.264       7.053       6.798    
        6.601       6.439       6.280       6.165       6.054       5.885       5.632       5.351       5.064       4.829    
        4.679       4.528       4.325       4.116       3.892       3.601       3.325       3.121       2.887       2.576    
        2.342       2.117       1.890       1.725       1.497       1.241      0.9798      0.6787      0.3452       0.000    
  37    10.00       9.940       9.883       9.808       9.689       9.560       9.431       9.295       9.103       8.797    
        8.470       8.238       8.128       7.992       7.832       7.681       7.464       7.237       6.969       6.710    
        6.565       6.437       6.286       6.164       6.032       5.827       5.590       5.293       5.044       4.873    
        4.722       4.558       4.350       4.168       3.935       3.657       3.440       3.242       2.982       2.672    
        2.392       2.173       1.992       1.808       1.591       1.354       1.103      0.7659      0.4150       0.000    
  38    10.00       9.933       9.859       9.778       9.669       9.542       9.398       9.255       9.050       8.765    
        8.515       8.330       8.189       8.064       7.882       7.645       7.395       7.112       6.820       6.659    
        6.548       6.388       6.239       6.136       5.989       5.773       5.486       5.222       5.081       4.944    
        4.776       4.591       4.393       4.207       3.979       3.725       3.530       3.328       3.019       2.695    
        2.452       2.249       2.066       1.881       1.689       1.460       1.201      0.8763      0.4546       0.000    
  39    10.00       9.914       9.839       9.759       9.650       9.508       9.352       9.201       9.013       8.783    
        8.587       8.449       8.290       8.108       7.834       7.522       7.208       6.903       6.730       6.631    
        6.473       6.299       6.193       6.096       5.954       5.704       5.425       5.258       5.133       4.989    
        4.809       4.633       4.432       4.233       4.040       3.830       3.606       3.371       3.052       2.733    
        2.478       2.275       2.132       1.985       1.776       1.543       1.281      0.9284      0.4546       0.000    
  40    10.00       9.900       9.826       9.745       9.635       9.485       9.325       9.171       9.012       8.820    
        8.658       8.537       8.334       8.036       7.682       7.332       7.014       6.810       6.699       6.573    
        6.398       6.250       6.156       6.035       5.870       5.667       5.486       5.320       5.172       5.036    
        4.869       4.673       4.469       4.283       4.105       3.892       3.650       3.415       3.069       2.720    
        2.490       2.321       2.172       2.046       1.835       1.575       1.335      0.9646      0.4762       0.000    
  41    10.00       9.907       9.820       9.730       9.608       9.472       9.330       9.193       9.040       8.867    
        8.713       8.563       8.281       7.897       7.506       7.189       6.943       6.773       6.657       6.512    
        6.333       6.208       6.100       5.971       5.828       5.685       5.553       5.393       5.216       5.059    
        4.909       4.722       4.517       4.347       4.160       3.953       3.706       3.377       2.994       2.726    
        2.540       2.364       2.227       2.069       1.845       1.588       1.376       1.023      0.5242       0.000    
  42    10.00       9.910       9.813       9.729       9.622       9.495       9.354       9.201       9.062       8.929    
        8.741       8.465       8.110       7.713       7.362       7.120       6.908       6.749       6.612       6.439    
        6.275       6.158       6.047       5.957       5.837       5.733       5.610       5.426       5.237       5.097    
        4.965       4.764       4.543       4.384       4.224       3.992       3.674       3.281       2.941       2.737    
        2.588       2.439       2.270       2.064       1.832       1.625       1.410       1.066      0.5484       0.000    
  43    10.00       9.911       9.821       9.735       9.650       9.537       9.395       9.243       9.091       8.898    
        8.622       8.304       7.940       7.559       7.289       7.087       6.888       6.720       6.555       6.382    
        6.231       6.121       6.041       5.971       5.867       5.753       5.633       5.453       5.285       5.171    
        5.003       4.782       4.575       4.417       4.234       3.950       3.577       3.198       2.962       2.801    
        2.643       2.482       2.275       2.052       1.841       1.641       1.448       1.063      0.4787       0.000    
  44    10.00       9.905       9.823       9.748       9.655       9.567       9.446       9.260       9.053       8.782    
        8.502       8.168       7.771       7.494       7.287       7.064       6.846       6.653       6.474       6.320    
        6.213       6.126       6.052       5.980       5.890       5.774       5.633       5.491       5.361       5.217    
        5.056       4.856       4.623       4.401       4.185       3.895       3.506       3.179       2.990       2.834    
        2.683       2.505       2.298       2.099       1.878       1.656       1.405      0.9099      0.4021       0.000    
  45    10.00       9.905       9.837       9.751       9.663       9.584       9.407       9.193       8.949       8.681    
        8.446       8.045       7.677       7.471       7.258       7.013       6.766       6.569       6.412       6.303    
        6.227       6.151       6.073       5.987       5.890       5.784       5.666       5.546       5.440       5.292    
        5.099       4.885       4.648       4.380       4.136       3.820       3.455       3.198       3.042       2.886    
        2.690       2.485       2.303       2.124       1.930       1.691       1.267      0.7626      0.3863       0.000    
  46    10.00       9.921       9.849       9.758       9.660       9.511       9.323       9.146       8.922       8.661    
        8.322       7.953       7.658       7.400       7.183       6.941       6.694       6.541       6.424       6.324    
        6.253       6.183       6.091       5.987       5.892       5.798       5.702       5.595       5.488       5.352    
        5.172       4.950       4.687       4.383       4.043       3.705       3.439       3.263       3.090       2.911    
        2.685       2.471       2.290       2.146       1.939       1.605       1.135      0.7183      0.3649       0.000    
  47    10.00       9.938       9.871       9.776       9.607       9.427       9.266       9.114       8.914       8.586    
        8.221       7.879       7.594       7.378       7.145       6.877       6.665       6.529       6.436       6.354    
        6.278       6.196       6.105       6.003       5.909       5.828       5.743       5.637       5.514       5.379    
        5.220       5.022       4.682       4.281       3.961       3.712       3.481       3.331       3.172       2.922    
        2.653       2.429       2.260       2.143       1.883       1.484       1.054      0.6911      0.3547       0.000    
  48    10.00       9.946       9.875       9.732       9.560       9.411       9.240       9.086       8.872       8.527    
        8.129       7.819       7.589       7.331       7.059       6.820       6.660       6.527       6.438       6.377    
        6.301       6.203       6.103       6.014       5.939       5.870       5.789       5.672       5.526       5.369    
        5.205       4.977       4.626       4.297       4.018       3.770       3.554       3.384       3.178       2.880    
        2.595       2.415       2.274       2.054       1.707       1.351       1.006      0.6960      0.3744       0.000    
  49    10.00       9.943       9.841       9.713       9.573       9.399       9.227       9.054       8.789       8.424    
        8.081       7.791       7.513       7.269       7.060       6.834       6.628       6.508       6.449       6.390    
        6.319       6.208       6.097       6.023       5.961       5.907       5.816       5.674       5.509       5.359    
        5.187       4.909       4.612       4.391       4.135       3.845       3.584       3.377       3.141       2.822    
        2.592       2.435       2.225       1.894       1.585       1.294      0.9948      0.6959      0.3732       0.000    
  50    10.00       9.935       9.830       9.699       9.572       9.410       9.217       9.001       8.722       8.433    
        8.075       7.712       7.454       7.259       7.082       6.828       6.600       6.510       6.457       6.398    
        6.327       6.213       6.099       6.028       5.975       5.925       5.821       5.659       5.492       5.349    
        5.172       4.886       4.656       4.458       4.190       3.902       3.628       3.346       3.023       2.756    
        2.638       2.459       2.136       1.803       1.573       1.292       1.009      0.6816      0.3039       0.000    

 HEAD WILL BE SAVED ON UNIT   51 AT END OF TIME STEP  35, STRESS PERIOD    2

 DRAWDOWN WILL BE SAVED ON UNIT   52 AT END OF TIME STEP  35, STRESS PERIOD    2
1
  VOLUMETRIC BUDGET FOR ENTIRE MODEL AT END OF TIME STEP 35 IN STRESS PERIOD   2
  ------------------------------------------------------------------------------

     CUMULATIVE VOLUMES      L**3       RATES FOR THIS TIME STEP      L**3/T
     ------------------                 ------------------------

           IN:                                      IN:
           ---                                      ---
             STORAGE =       17391.6445               STORAGE =         486.6937
       CONSTANT HEAD =       21596.1543         CONSTANT HEAD =         609.2435
               WELLS =           0.0000                 WELLS =           0.0000

            TOTAL IN =       38987.7969              TOTAL IN =        1095.9373

          OUT:                                     OUT:
          ----                                     ----
             STORAGE =       9.4320E-03               STORAGE =           0.0000
       CONSTANT HEAD =       21487.7852         CONSTANT HEAD =         595.9365
               WELLS =       17500.0000                 WELLS =         500.0000

           TOTAL OUT =       38987.7930             TOTAL OUT =        1095.9365

            IN - OUT =       3.9063E-03              IN - OUT =       7.3242E-04

 PERCENT DISCREPANCY =           0.00     PERCENT DISCREPANCY =           0.00






          TIME SUMMARY AT END OF TIME STEP  35 IN STRESS PERIOD    2
                    SECONDS     MINUTES      HOURS       DAYS        YEARS
                    -----------------------------------------------------------
   TIME STEP LENGTH  86400.      1440.0      24.000      1.0000     2.73785E-03
 STRESS PERIOD TIME 3.02400E+06  50400.      840.00      35.000     9.58248E-02
         TOTAL TIME 3.11040E+06  51840.      864.00      36.000     9.85626E-02
1
 
 SOLVING FOR HEAD 

 OUTPUT CONTROL FOR STRESS PERIOD    2   TIME STEP  36
    SAVE HEAD FOR ALL LAYERS
    SAVE DRAWDOWN FOR ALL LAYERS
    SAVE BUDGET
    PRINT HEAD FOR ALL LAYERS
    PRINT BUDGET
 UBDSV1 SAVING "         STORAGE" ON UNIT  53 AT TIME STEP 36, STRESS PERIOD   2
 UBDSV2 SAVING "   CONSTANT HEAD" ON UNIT  53 AT TIME STEP 36, STRESS PERIOD   2
 UBDSV1 SAVING "FLOW RIGHT FACE " ON UNIT  53 AT TIME STEP 36, STRESS PERIOD   2
 UBDSV1 SAVING "FLOW FRONT FACE " ON UNIT  53 AT TIME STEP 36, STRESS PERIOD   2
1
              HEAD IN LAYER   1 AT END OF TIME STEP  36 IN STRESS PERIOD    2
  ---------------------------------------------------------------------------

            1           2           3           4           5           6           7           8           9          10
           11          12          13          14          15          16          17          18          19          20
           21          22          23          24          25          26          27          28          29          30
           31          32          33          34          35          36          37          38          39          40
           41          42          43          44          45          46          47          48          49          50
 ........................................................................................................................
   1    10.00       9.959       9.900       9.833       9.767       9.693       9.623       9.553       9.466       9.380    
        9.313       9.248       9.181       9.116       9.010       8.883       8.742       8.630       8.572       8.504    
        8.424       8.359       8.295       8.221       8.122       7.927       7.706       7.551       7.399       7.256    
        7.070       6.771       6.389       5.965       5.525       5.058       4.595       4.209       3.706       3.159    
        2.709       2.280       1.804       1.405       1.159      0.9503      0.7851      0.6655      0.4467       0.000    
   2    10.00       9.958       9.904       9.837       9.770       9.705       9.635       9.544       9.448       9.378    
        9.320       9.264       9.208       9.127       9.006       8.873       8.740       8.629       8.570       8.495    
        8.414       8.365       8.314       8.236       8.111       7.920       7.719       7.560       7.406       7.267    
        7.059       6.746       6.346       5.863       5.394       4.941       4.540       4.168       3.656       3.127    
        2.676       2.193       1.759       1.445       1.214       1.035      0.8299      0.6478      0.3614       0.000    
   3    10.00       9.952       9.899       9.839       9.781       9.714       9.624       9.528       9.461       9.397    
        9.333       9.282       9.232       9.154       9.031       8.867       8.721       8.632       8.562       8.485    
        8.420       8.369       8.316       8.213       8.077       7.907       7.733       7.607       7.429       7.247    
        6.986       6.615       6.159       5.692       5.275       4.852       4.460       4.060       3.529       3.039    
        2.652       2.207       1.809       1.521       1.292       1.106      0.8634      0.5789      0.2625       0.000    
   4    10.00       9.952       9.900       9.841       9.775       9.698       9.606       9.533       9.474       9.409    
        9.353       9.310       9.255       9.167       9.047       8.872       8.721       8.637       8.559       8.490    
        8.419       8.356       8.289       8.182       8.047       7.895       7.738       7.583       7.426       7.219    
        6.892       6.404       5.920       5.564       5.217       4.780       4.308       3.839       3.415       3.044    
        2.682       2.268       1.893       1.634       1.375       1.139      0.8390      0.5208      0.2495       0.000    
   5    10.00       9.949       9.896       9.830       9.764       9.692       9.609       9.545       9.485       9.424    
        9.375       9.333       9.261       9.158       9.026       8.867       8.739       8.647       8.570       8.478    
        8.393       8.325       8.243       8.138       8.018       7.862       7.706       7.564       7.405       7.154    
        6.686       6.141       5.754       5.475       5.131       4.658       4.170       3.745       3.426       3.091    
        2.735       2.353       1.981       1.740       1.462       1.121      0.7638      0.4645      0.2336       0.000    
   6    10.00       9.941       9.879       9.824       9.764       9.686       9.616       9.561       9.498       9.440    
        9.394       9.343       9.252       9.136       9.021       8.888       8.758       8.652       8.550       8.444    
        8.359       8.280       8.208       8.114       7.960       7.808       7.682       7.537       7.317       6.939    
        6.424       5.931       5.608       5.367       5.055       4.588       4.102       3.741       3.472       3.168    
        2.842       2.506       2.125       1.801       1.434       1.058      0.6748      0.4010      0.2207       0.000    
   7    10.00       9.930       9.869       9.818       9.756       9.691       9.628       9.577       9.518       9.462    
        9.405       9.328       9.229       9.120       9.010       8.906       8.770       8.627       8.510       8.405    
        8.316       8.239       8.178       8.059       7.903       7.774       7.646       7.453       7.102       6.620    
        6.128       5.728       5.507       5.292       4.930       4.493       4.165       3.815       3.520       3.321    
        3.011       2.650       2.203       1.741       1.330      0.9192      0.5816      0.4040      0.2080       0.000    
   8    10.00       9.930       9.875       9.817       9.754       9.696       9.642       9.589       9.536       9.482    
        9.407       9.310       9.211       9.108       9.007       8.890       8.721       8.570       8.475       8.374    
        8.274       8.208       8.117       7.991       7.855       7.720       7.506       7.207       6.767       6.345    
        5.974       5.662       5.459       5.212       4.827       4.465       4.169       3.910       3.680       3.450    
        3.148       2.695       2.145       1.653       1.224      0.8609      0.6158      0.3959      0.1898       0.000    
   9    10.00       9.941       9.874       9.811       9.764       9.716       9.662       9.606       9.547       9.489    
        9.403       9.293       9.186       9.083       8.975       8.837       8.674       8.535       8.431       8.328    
        8.240       8.155       8.032       7.912       7.787       7.622       7.316       6.915       6.504       6.194    
        5.888       5.628       5.404       5.095       4.737       4.433       4.208       4.015       3.810       3.558    
        3.195       2.701       2.141       1.651       1.234      0.8802      0.6216      0.3995      0.2042       0.000    
  10    10.00       9.938       9.868       9.817       9.773       9.727       9.678       9.630       9.561       9.476    
        9.372       9.257       9.155       9.059       8.948       8.779       8.607       8.487       8.391       8.294    
        8.211       8.094       7.958       7.824       7.679       7.443       7.053       6.637       6.284       6.035    
        5.836       5.613       5.344       5.030       4.694       4.436       4.262       4.095       3.873       3.584    
        3.170       2.658       2.146       1.727       1.336      0.9691      0.6412      0.4243      0.2280       0.000    
  11    10.00       9.925       9.869       9.826       9.783       9.744       9.699       9.632       9.539       9.444    
        9.340       9.227       9.133       9.018       8.868       8.706       8.565       8.458       8.369       8.271    
        8.148       8.000       7.819       7.665       7.426       7.098       6.765       6.455       6.155       5.967    
        5.813       5.533       5.237       4.976       4.717       4.515       4.333       4.121       3.847       3.499    
        3.110       2.714       2.222       1.809       1.437       1.072      0.7206      0.4168      0.1748       0.000    
  12    10.00       9.928       9.875       9.830       9.794       9.753       9.702       9.609       9.501       9.411    
        9.314       9.197       9.083       8.947       8.815       8.667       8.530       8.437       8.340       8.206    
        8.005       7.786       7.572       7.358       7.040       6.791       6.597       6.296       6.044       5.897    
        5.721       5.465       5.216       4.973       4.783       4.591       4.361       4.103       3.771       3.422    
        3.092       2.734       2.259       1.853       1.503       1.121      0.7585      0.3933      0.1305       0.000    
  13    10.00       9.942       9.892       9.845       9.802       9.753       9.672       9.566       9.465       9.372    
        9.264       9.151       9.033       8.891       8.746       8.607       8.507       8.392       8.266       8.008    
        7.706       7.474       7.238       6.954       6.707       6.584       6.367       6.101       5.959       5.823    
        5.613       5.388       5.191       5.005       4.841       4.663       4.389       4.040       3.721       3.391    
        3.076       2.705       2.196       1.819       1.518       1.112      0.6976      0.3398      0.1040       0.000    
  14    10.00       9.955       9.913       9.862       9.803       9.724       9.618       9.513       9.422       9.321    
        9.210       9.104       8.971       8.823       8.695       8.574       8.426       8.280       8.034       7.651    
        7.360       7.134       6.820       6.595       6.476       6.363       6.149       5.981       5.847       5.707    
        5.524       5.355       5.212       5.048       4.870       4.692       4.385       4.005       3.676       3.337    
        3.014       2.554       2.069       1.773       1.430       1.066      0.6991      0.3149      8.9676E-02   0.000    
  15    10.00       9.964       9.920       9.864       9.794       9.679       9.552       9.459       9.374       9.274    
        9.188       9.079       8.910       8.743       8.625       8.442       8.255       8.100       7.727       7.307    
        7.042       6.741       6.473       6.384       6.317       6.178       5.995       5.838       5.732       5.621    
        5.477       5.352       5.232       5.087       4.911       4.695       4.339       3.920       3.574       3.265    
        2.919       2.455       2.073       1.703       1.297      0.9755      0.6251      0.2889      9.7735E-02   0.000    
  16    10.00       9.971       9.923       9.855       9.752       9.616       9.502       9.429       9.354       9.254    
        9.150       8.993       8.784       8.623       8.456       8.245       8.119       7.811       7.285       6.914    
        6.677       6.415       6.315       6.260       6.144       5.965       5.822       5.740       5.681       5.584    
        5.462       5.347       5.246       5.102       4.891       4.603       4.201       3.840       3.566       3.238    
        2.837       2.382       1.971       1.570       1.220      0.8645      0.5611      0.2919      0.1042       0.000    
  17    10.00       9.966       9.910       9.819       9.703       9.563       9.462       9.399       9.310       9.205    
        9.023       8.804       8.629       8.465       8.251       8.040       7.779       7.288       6.843       6.607    
        6.418       6.274       6.203       6.083       5.905       5.777       5.732       5.700       5.642       5.542    
        5.434       5.333       5.227       5.085       4.790       4.417       4.106       3.869       3.603       3.209    
        2.702       2.257       1.877       1.500       1.095      0.7215      0.4785      0.2653      0.1105       0.000    
  18    10.00       9.953       9.880       9.776       9.624       9.506       9.435       9.342       9.235       9.080    
        8.850       8.667       8.503       8.255       7.975       7.685       7.317       6.884       6.608       6.424    
        6.279       6.153       6.039       5.879       5.754       5.711       5.690       5.661       5.592       5.497    
        5.404       5.303       5.169       4.952       4.651       4.349       4.103       3.909       3.576       3.095    
        2.607       2.141       1.759       1.405       1.016      0.6658      0.4046      0.2217      0.1035       0.000    
  19    10.00       9.937       9.854       9.701       9.551       9.482       9.394       9.273       9.145       8.968    
        8.764       8.584       8.323       7.970       7.676       7.388       6.990       6.633       6.455       6.335    
        6.181       6.023       5.895       5.759       5.690       5.667       5.642       5.594       5.518       5.438    
        5.349       5.239       5.065       4.842       4.594       4.338       4.126       3.879       3.410       2.936    
        2.550       2.075       1.660       1.316      0.9341      0.6002      0.3642      0.2105      0.1054       0.000    
  20    10.00       9.918       9.792       9.634       9.523       9.445       9.348       9.219       9.066       8.903    
        8.690       8.423       8.068       7.742       7.481       7.133       6.768       6.584       6.433       6.269    
        6.103       5.938       5.781       5.680       5.632       5.594       5.542       5.494       5.423       5.352    
        5.269       5.159       4.986       4.787       4.564       4.344       4.120       3.738       3.246       2.843    
        2.417       1.956       1.589       1.244      0.8884      0.5394      0.3163      0.2124      0.1073       0.000    
  21    10.00       9.871       9.741       9.612       9.497       9.409       9.303       9.140       8.985       8.826    
        8.550       8.213       7.878       7.608       7.326       6.991       6.729       6.568       6.395       6.216    
        6.014       5.826       5.688       5.585       5.507       5.440       5.399       5.357       5.285       5.232    
        5.171       5.060       4.912       4.739       4.540       4.328       4.012       3.625       3.197       2.719    
        2.290       1.857       1.540       1.223      0.7718      0.4552      0.3240      0.2363      0.1135       0.000    
  22    10.00       9.852       9.699       9.574       9.477       9.372       9.216       9.054       8.916       8.707    
        8.415       8.061       7.770       7.546       7.236       6.926       6.704       6.538       6.366       6.151    
        5.919       5.729       5.551       5.393       5.290       5.241       5.210       5.157       5.131       5.100    
        5.052       4.964       4.851       4.690       4.503       4.298       3.968       3.578       3.075       2.603    
        2.232       1.840       1.487       1.019      0.6344      0.4559      0.3426      0.2277      9.0383E-02   0.000    
  23    10.00       9.819       9.671       9.567       9.461       9.305       9.130       9.002       8.828       8.609    
        8.311       7.995       7.771       7.486       7.152       6.882       6.694       6.541       6.348       6.090    
        5.842       5.619       5.384       5.104       4.856       4.810       4.884       4.920       4.964       4.974    
        4.949       4.885       4.785       4.655       4.475       4.259       3.950       3.464       2.933       2.544    
        2.188       1.742       1.236      0.8304      0.6180      0.4673      0.3416      0.2166      0.1008       0.000    
  24    10.00       9.795       9.687       9.568       9.418       9.247       9.109       8.969       8.798       8.545    
        8.270       8.024       7.777       7.435       7.081       6.867       6.712       6.554       6.321       6.061    
        5.815       5.559       5.200       4.558       3.589       3.921       4.368       4.648       4.794       4.849    
        4.855       4.809       4.735       4.601       4.427       4.208       3.825       3.311       2.858       2.445    
        2.012       1.541       1.094      0.7909      0.6140      0.4640      0.3333      0.2525      0.1389       0.000    
  25    10.00       9.821       9.708       9.564       9.406       9.253       9.111       8.979       8.769       8.517    
        8.285       8.049       7.747       7.371       7.097       6.902       6.730       6.544       6.327       6.086    
        5.821       5.567       4.914       3.543      0.4233       2.964       3.926       4.405       4.654       4.761    
        4.782       4.755       4.678       4.522       4.338       4.072       3.674       3.180       2.770       2.323    
        1.824       1.380       1.016      0.7813      0.6379      0.4984      0.3641      0.2682      0.1750       0.000    
  26    10.00       9.847       9.740       9.586       9.423       9.289       9.142       8.974       8.759       8.562    
        8.364       8.050       7.668       7.348       7.147       6.973       6.769       6.528       6.298       6.092    
        5.888       5.610       5.010       4.019       2.974       3.495       4.054       4.401       4.612       4.723    
        4.738       4.708       4.610       4.457       4.278       3.989       3.469       3.014       2.669       2.124    
        1.584       1.217       1.004      0.8468      0.6946      0.5401      0.4003      0.2931      0.1750       0.000    
  27    10.00       9.881       9.751       9.619       9.474       9.318       9.172       9.010       8.817       8.630    
        8.363       7.992       7.662       7.402       7.226       7.031       6.763       6.498       6.311       6.148    
        5.979       5.693       5.246       4.703       4.126       4.151       4.350       4.531       4.662       4.720    
        4.716       4.675       4.580       4.423       4.183       3.731       3.240       2.884       2.356       1.823    
        1.438       1.200       1.045      0.9123      0.7720      0.5939      0.4275      0.3199      0.2150       0.000    
  28    10.00       9.892       9.782       9.656       9.524       9.377       9.225       9.062       8.880       8.664    
        8.336       8.000       7.713       7.464       7.283       7.085       6.857       6.599       6.353       6.192    
        6.042       5.838       5.543       5.141       4.780       4.619       4.632       4.713       4.740       4.746    
        4.712       4.653       4.538       4.320       3.963       3.492       3.078       2.593       2.074       1.722    
        1.444       1.249       1.095      0.9632      0.8191      0.6487      0.4841      0.3637      0.2217       0.000    
  29    10.00       9.897       9.792       9.698       9.571       9.436       9.290       9.126       8.934       8.644    
        8.322       8.027       7.756       7.550       7.342       7.128       6.920       6.714       6.479       6.273    
        6.112       5.942       5.740       5.495       5.169       4.993       4.925       4.892       4.863       4.796    
        4.713       4.596       4.449       4.150       3.727       3.307       2.879       2.394       2.001       1.747    
        1.520       1.305       1.138       1.009      0.8689      0.6943      0.5247      0.3841      0.2238       0.000    
  30    10.00       9.906       9.819       9.736       9.625       9.501       9.372       9.190       8.949       8.653    
        8.322       8.022       7.795       7.592       7.386       7.179       7.006       6.831       6.621       6.401    
        6.211       6.055       5.881       5.705       5.494       5.300       5.217       5.089       4.995       4.854    
        4.687       4.493       4.283       3.966       3.626       3.232       2.793       2.349       2.063       1.832    
        1.575       1.364       1.203       1.049      0.8912      0.7367      0.5589      0.4001      0.2417       0.000    
  31    10.00       9.922       9.847       9.769       9.688       9.591       9.449       9.234       8.955       8.648    
        8.328       8.049       7.833       7.626       7.443       7.252       7.072       6.939       6.736       6.526    
        6.345       6.182       6.029       5.863       5.720       5.567       5.416       5.266       5.087       4.882    
        4.629       4.381       4.164       3.916       3.580       3.171       2.755       2.392       2.162       1.954    
        1.687       1.444       1.256       1.094      0.9365      0.7728      0.5947      0.4272      0.2351       0.000    
  32    10.00       9.934       9.876       9.808       9.730       9.641       9.500       9.256       8.994       8.714    
        8.377       8.088       7.873       7.677       7.492       7.331       7.174       7.007       6.843       6.644    
        6.452       6.276       6.121       5.961       5.833       5.727       5.560       5.366       5.118       4.843    
        4.580       4.345       4.121       3.885       3.565       3.198       2.849       2.533       2.287       2.052    
        1.804       1.550       1.349       1.159      0.9791      0.8312      0.6488      0.4274      0.2122       0.000    
  33    10.00       9.943       9.896       9.841       9.765       9.664       9.483       9.246       9.028       8.768    
        8.440       8.154       7.932       7.718       7.545       7.409       7.270       7.104       6.924       6.738    
        6.538       6.349       6.165       6.013       5.911       5.804       5.616       5.362       5.104       4.848    
        4.596       4.385       4.163       3.869       3.568       3.237       2.939       2.684       2.427       2.169    
        1.938       1.697       1.476       1.277       1.077      0.9018      0.6970      0.4361      0.2054       0.000    
  34    10.00       9.948       9.917       9.869       9.774       9.634       9.460       9.285       9.061       8.779    
        8.489       8.209       7.971       7.757       7.603       7.497       7.350       7.182       6.982       6.805    
        6.620       6.397       6.213       6.074       5.968       5.827       5.603       5.378       5.116       4.836    
        4.623       4.443       4.237       3.948       3.641       3.339       3.065       2.835       2.571       2.312    
        2.090       1.869       1.635       1.431       1.219       1.013      0.7524      0.4833      0.2548       0.000    
  35    10.00       9.957       9.921       9.860       9.742       9.594       9.467       9.318       9.110       8.807    
        8.498       8.237       7.996       7.812       7.684       7.565       7.410       7.222       7.028       6.830    
        6.644       6.443       6.255       6.123       6.007       5.868       5.636       5.366       5.087       4.822    
        4.665       4.490       4.270       4.049       3.787       3.468       3.191       3.005       2.738       2.449    
        2.241       2.019       1.796       1.596       1.359       1.129      0.8669      0.5786      0.2891       0.000    
  36    10.00       9.954       9.903       9.834       9.717       9.576       9.461       9.321       9.112       8.827    
        8.504       8.221       8.040       7.897       7.775       7.626       7.439       7.254       7.043       6.788    
        6.591       6.429       6.269       6.154       6.043       5.875       5.623       5.344       5.058       4.824    
        4.675       4.524       4.322       4.113       3.890       3.600       3.324       3.120       2.886       2.575    
        2.341       2.117       1.890       1.725       1.496       1.241      0.9798      0.6786      0.3451       0.000    
  37    10.00       9.940       9.883       9.807       9.689       9.559       9.430       9.294       9.101       8.793    
        8.466       8.233       8.122       7.986       7.825       7.673       7.456       7.228       6.961       6.702    
        6.557       6.428       6.277       6.155       6.024       5.819       5.584       5.288       5.040       4.869    
        4.718       4.555       4.348       4.165       3.933       3.656       3.439       3.241       2.981       2.671    
        2.392       2.173       1.992       1.808       1.591       1.354       1.103      0.7659      0.4149       0.000    
  38    10.00       9.933       9.858       9.778       9.668       9.541       9.396       9.254       9.048       8.762    
        8.511       8.326       8.184       8.058       7.876       7.639       7.388       7.105       6.814       6.653    
        6.541       6.381       6.233       6.130       5.982       5.767       5.482       5.219       5.078       4.941    
        4.773       4.589       4.391       4.205       3.977       3.724       3.529       3.328       3.018       2.694    
        2.452       2.249       2.066       1.881       1.689       1.460       1.201      0.8762      0.4546       0.000    
  39    10.00       9.914       9.839       9.758       9.650       9.507       9.351       9.200       9.012       8.781    
        8.584       8.445       8.286       8.104       7.829       7.517       7.203       6.899       6.725       6.626    
        6.468       6.295       6.188       6.091       5.950       5.700       5.423       5.255       5.131       4.987    
        4.807       4.631       4.431       4.232       4.039       3.829       3.605       3.370       3.052       2.732    
        2.478       2.275       2.132       1.985       1.776       1.543       1.281      0.9284      0.4546       0.000    
  40    10.00       9.900       9.826       9.744       9.634       9.485       9.324       9.170       9.010       8.818    
        8.655       8.534       8.331       8.033       7.679       7.328       7.011       6.807       6.695       6.569    
        6.394       6.246       6.152       6.032       5.867       5.665       5.484       5.318       5.170       5.034    
        4.867       4.672       4.468       4.282       4.104       3.891       3.650       3.414       3.068       2.719    
        2.489       2.321       2.172       2.046       1.835       1.575       1.335      0.9645      0.4762       0.000    
  41    10.00       9.907       9.820       9.729       9.607       9.471       9.330       9.192       9.038       8.866    
        8.711       8.560       8.278       7.894       7.503       7.187       6.941       6.770       6.654       6.509    
        6.331       6.205       6.098       5.969       5.826       5.683       5.551       5.392       5.215       5.058    
        4.907       4.721       4.516       4.346       4.160       3.952       3.706       3.377       2.994       2.726    
        2.539       2.364       2.227       2.069       1.845       1.588       1.376       1.023      0.5242       0.000    
  42    10.00       9.910       9.812       9.729       9.622       9.495       9.353       9.200       9.061       8.928    
        8.739       8.464       8.108       7.711       7.360       7.118       6.906       6.746       6.610       6.436    
        6.273       6.156       6.046       5.955       5.836       5.731       5.608       5.425       5.236       5.096    
        4.964       4.763       4.542       4.383       4.224       3.991       3.674       3.281       2.941       2.737    
        2.588       2.439       2.270       2.063       1.832       1.624       1.410       1.066      0.5484       0.000    
  43    10.00       9.910       9.821       9.735       9.650       9.536       9.394       9.242       9.090       8.897    
        8.621       8.303       7.939       7.558       7.288       7.086       6.886       6.718       6.553       6.381    
        6.229       6.119       6.039       5.969       5.865       5.752       5.631       5.452       5.283       5.169    
        5.002       4.781       4.574       4.417       4.233       3.949       3.576       3.197       2.961       2.800    
        2.642       2.482       2.275       2.052       1.841       1.640       1.448       1.063      0.4787       0.000    
  44    10.00       9.905       9.823       9.748       9.654       9.567       9.446       9.259       9.053       8.781    
        8.501       8.167       7.770       7.493       7.286       7.063       6.844       6.652       6.472       6.319    
        6.212       6.125       6.051       5.979       5.889       5.773       5.632       5.490       5.360       5.216    
        5.055       4.855       4.622       4.400       4.185       3.894       3.506       3.178       2.989       2.834    
        2.682       2.505       2.298       2.099       1.878       1.656       1.405      0.9098      0.4021       0.000    
  45    10.00       9.904       9.837       9.751       9.663       9.584       9.406       9.192       8.948       8.681    
        8.445       8.044       7.676       7.470       7.257       7.012       6.765       6.568       6.411       6.302    
        6.226       6.150       6.072       5.986       5.889       5.783       5.665       5.545       5.439       5.291    
        5.098       4.884       4.648       4.379       4.135       3.820       3.455       3.197       3.042       2.886    
        2.690       2.485       2.303       2.124       1.930       1.691       1.267      0.7626      0.3862       0.000    
  46    10.00       9.921       9.849       9.758       9.660       9.511       9.323       9.145       8.922       8.660    
        8.321       7.953       7.657       7.400       7.182       6.940       6.693       6.540       6.423       6.323    
        6.252       6.182       6.090       5.986       5.891       5.797       5.701       5.594       5.488       5.352    
        5.172       4.949       4.686       4.383       4.043       3.704       3.439       3.263       3.090       2.911    
        2.685       2.471       2.290       2.146       1.939       1.605       1.135      0.7183      0.3649       0.000    
  47    10.00       9.938       9.871       9.776       9.606       9.426       9.266       9.113       8.913       8.586    
        8.221       7.878       7.594       7.377       7.144       6.876       6.664       6.528       6.435       6.353    
        6.277       6.196       6.104       6.002       5.908       5.827       5.742       5.636       5.513       5.378    
        5.219       5.021       4.682       4.280       3.961       3.712       3.481       3.331       3.172       2.922    
        2.653       2.429       2.260       2.143       1.883       1.484       1.054      0.6911      0.3547       0.000    
  48    10.00       9.946       9.875       9.732       9.560       9.411       9.239       9.086       8.872       8.527    
        8.129       7.818       7.588       7.330       7.059       6.819       6.659       6.526       6.437       6.376    
        6.300       6.202       6.102       6.013       5.938       5.869       5.788       5.671       5.525       5.368    
        5.204       4.977       4.626       4.296       4.017       3.770       3.554       3.383       3.178       2.879    
        2.595       2.415       2.274       2.054       1.707       1.351       1.006      0.6960      0.3744       0.000    
  49    10.00       9.943       9.841       9.713       9.573       9.399       9.227       9.054       8.789       8.424    
        8.081       7.791       7.512       7.268       7.059       6.833       6.628       6.507       6.448       6.389    
        6.318       6.207       6.096       6.023       5.960       5.907       5.815       5.673       5.508       5.358    
        5.186       4.908       4.612       4.391       4.135       3.845       3.583       3.377       3.141       2.822    
        2.592       2.435       2.225       1.894       1.585       1.294      0.9948      0.6959      0.3732       0.000    
  50    10.00       9.935       9.830       9.699       9.572       9.409       9.216       9.000       8.721       8.433    
        8.075       7.711       7.453       7.258       7.082       6.827       6.599       6.509       6.456       6.397    
        6.326       6.212       6.098       6.027       5.974       5.924       5.820       5.658       5.491       5.348    
        5.171       4.886       4.656       4.458       4.190       3.902       3.628       3.346       3.023       2.756    
        2.638       2.459       2.135       1.803       1.573       1.292       1.009      0.6816      0.3039       0.000    

 HEAD WILL BE SAVED ON UNIT   51 AT END OF TIME STEP  36, STRESS PERIOD    2

 DRAWDOWN WILL BE SAVED ON UNIT   52 AT END OF TIME STEP  36, STRESS PERIOD    2
1
  VOLUMETRIC BUDGET FOR ENTIRE MODEL AT END OF TIME STEP 36 IN STRESS PERIOD   2
  ------------------------------------------------------------------------------

     CUMULATIVE VOLUMES      L**3       RATES FOR THIS TIME STEP      L**3/T
     ------------------                 ------------------------

           IN:                                      IN:
           ---                                      ---
             STORAGE =       17877.1074               STORAGE =         485.4637
       CONSTANT HEAD =       22206.4727         CONSTANT HEAD =         610.3189
               WELLS =           0.0000                 WELLS =           0.0000

            TOTAL IN =       40083.5781              TOTAL IN =        1095.7826

          OUT:                                     OUT:
          ----                                     ----
             STORAGE =       9.4320E-03               STORAGE =           0.0000
       CONSTANT HEAD =       22083.5684         CONSTANT HEAD =         595.7823
               WELLS =       18000.0000                 WELLS =         500.0000

           TOTAL OUT =       40083.5781             TOTAL OUT =        1095.7822

            IN - OUT =           0.0000              IN - OUT =       3.6621E-04

 PERCENT DISCREPANCY =           0.00     PERCENT DISCREPANCY =           0.00






          TIME SUMMARY AT END OF TIME STEP  36 IN STRESS PERIOD    2
                    SECONDS     MINUTES      HOURS       DAYS        YEARS
                    -----------------------------------------------------------
   TIME STEP LENGTH  86400.      1440.0      24.000      1.0000     2.73785E-03
 STRESS PERIOD TIME 3.11040E+06  51840.      864.00      36.000     9.85626E-02
         TOTAL TIME 3.19680E+06  53280.      888.00      37.000     0.10130    
1
 
 SOLVING FOR HEAD 

 OUTPUT CONTROL FOR STRESS PERIOD    2   TIME STEP  37
    SAVE HEAD FOR ALL LAYERS
    SAVE DRAWDOWN FOR ALL LAYERS
    SAVE BUDGET
    PRINT HEAD FOR ALL LAYERS
    PRINT BUDGET
 UBDSV1 SAVING "         STORAGE" ON UNIT  53 AT TIME STEP 37, STRESS PERIOD   2
 UBDSV2 SAVING "   CONSTANT HEAD" ON UNIT  53 AT TIME STEP 37, STRESS PERIOD   2
 UBDSV1 SAVING "FLOW RIGHT FACE " ON UNIT  53 AT TIME STEP 37, STRESS PERIOD   2
 UBDSV1 SAVING "FLOW FRONT FACE " ON UNIT  53 AT TIME STEP 37, STRESS PERIOD   2
1
              HEAD IN LAYER   1 AT END OF TIME STEP  37 IN STRESS PERIOD    2
  ---------------------------------------------------------------------------

            1           2           3           4           5           6           7           8           9          10
           11          12          13          14          15          16          17          18          19          20
           21          22          23          24          25          26          27          28          29          30
           31          32          33          34          35          36          37          38          39          40
           41          42          43          44          45          46          47          48          49          50
 ........................................................................................................................
   1    10.00       9.959       9.900       9.832       9.767       9.692       9.622       9.553       9.465       9.379    
        9.312       9.247       9.180       9.114       9.009       8.881       8.739       8.627       8.569       8.502    
        8.421       8.356       8.292       8.218       8.119       7.924       7.703       7.548       7.396       7.254    
        7.067       6.769       6.387       5.963       5.524       5.056       4.594       4.208       3.705       3.158    
        2.709       2.279       1.803       1.404       1.158      0.9500      0.7849      0.6653      0.4466       0.000    
   2    10.00       9.958       9.904       9.836       9.770       9.704       9.634       9.543       9.447       9.376    
        9.319       9.263       9.207       9.126       9.005       8.871       8.738       8.627       8.567       8.492    
        8.411       8.362       8.311       8.233       8.108       7.917       7.717       7.557       7.403       7.264    
        7.056       6.744       6.344       5.861       5.392       4.940       4.539       4.167       3.655       3.126    
        2.675       2.192       1.758       1.445       1.213       1.034      0.8296      0.6476      0.3613       0.000    
   3    10.00       9.952       9.899       9.838       9.780       9.713       9.624       9.527       9.460       9.396    
        9.332       9.280       9.231       9.153       9.029       8.865       8.719       8.630       8.559       8.483    
        8.417       8.366       8.313       8.210       8.074       7.904       7.730       7.604       7.426       7.244    
        6.983       6.613       6.157       5.690       5.273       4.851       4.458       4.059       3.528       3.038    
        2.651       2.206       1.808       1.521       1.291       1.106      0.8632      0.5788      0.2624       0.000    
   4    10.00       9.952       9.900       9.841       9.775       9.698       9.605       9.532       9.473       9.408    
        9.351       9.309       9.253       9.165       9.045       8.870       8.718       8.634       8.556       8.487    
        8.416       8.353       8.286       8.179       8.044       7.892       7.734       7.580       7.423       7.216    
        6.889       6.401       5.917       5.562       5.214       4.778       4.306       3.838       3.414       3.043    
        2.681       2.267       1.893       1.634       1.375       1.139      0.8387      0.5207      0.2494       0.000    
   5    10.00       9.949       9.896       9.830       9.763       9.691       9.608       9.544       9.484       9.423    
        9.374       9.332       9.260       9.157       9.024       8.865       8.736       8.644       8.567       8.475    
        8.390       8.322       8.240       8.135       8.014       7.859       7.702       7.560       7.401       7.151    
        6.683       6.138       5.750       5.472       5.128       4.656       4.168       3.743       3.424       3.089    
        2.733       2.352       1.981       1.739       1.462       1.121      0.7636      0.4644      0.2336       0.000    
   6    10.00       9.941       9.879       9.824       9.763       9.685       9.615       9.560       9.497       9.439    
        9.392       9.342       9.251       9.135       9.019       8.885       8.756       8.650       8.547       8.441    
        8.356       8.276       8.205       8.110       7.957       7.804       7.678       7.533       7.313       6.935    
        6.420       5.927       5.604       5.363       5.052       4.585       4.099       3.739       3.470       3.166    
        2.840       2.505       2.124       1.801       1.433       1.058      0.6746      0.4008      0.2207       0.000    
   7    10.00       9.930       9.869       9.818       9.755       9.690       9.628       9.576       9.517       9.461    
        9.403       9.327       9.227       9.118       9.008       8.904       8.768       8.624       8.507       8.402    
        8.313       8.236       8.174       8.055       7.899       7.770       7.641       7.449       7.097       6.616    
        6.123       5.723       5.503       5.287       4.926       4.490       4.162       3.812       3.518       3.318    
        3.009       2.649       2.202       1.740       1.329      0.9189      0.5814      0.4039      0.2079       0.000    
   8    10.00       9.929       9.875       9.817       9.753       9.696       9.641       9.589       9.535       9.481    
        9.405       9.308       9.210       9.106       9.005       8.887       8.718       8.567       8.471       8.370    
        8.270       8.204       8.113       7.987       7.850       7.715       7.501       7.202       6.762       6.339    
        5.968       5.656       5.454       5.207       4.822       4.461       4.165       3.907       3.677       3.447    
        3.146       2.693       2.144       1.652       1.224      0.8606      0.6156      0.3957      0.1897       0.000    
   9    10.00       9.941       9.874       9.811       9.764       9.716       9.661       9.605       9.546       9.488    
        9.401       9.291       9.184       9.081       8.972       8.834       8.671       8.531       8.427       8.324    
        8.236       8.150       8.028       7.907       7.782       7.617       7.310       6.909       6.497       6.187    
        5.881       5.621       5.398       5.089       4.732       4.428       4.203       4.012       3.806       3.555    
        3.193       2.699       2.140       1.650       1.233      0.8799      0.6213      0.3993      0.2042       0.000    
  10    10.00       9.938       9.868       9.816       9.773       9.727       9.677       9.630       9.560       9.475    
        9.371       9.255       9.153       9.057       8.945       8.776       8.604       8.483       8.387       8.290    
        8.206       8.089       7.953       7.818       7.672       7.436       7.046       6.629       6.276       6.027    
        5.828       5.606       5.337       5.024       4.688       4.431       4.257       4.091       3.869       3.581    
        3.168       2.656       2.144       1.727       1.336      0.9687      0.6410      0.4242      0.2279       0.000    
  11    10.00       9.925       9.868       9.826       9.783       9.743       9.698       9.632       9.538       9.443    
        9.338       9.225       9.131       9.015       8.864       8.703       8.561       8.453       8.365       8.266    
        8.143       7.994       7.812       7.658       7.418       7.089       6.756       6.445       6.146       5.958    
        5.804       5.525       5.229       4.969       4.710       4.509       4.328       4.116       3.843       3.496    
        3.107       2.712       2.220       1.809       1.436       1.072      0.7204      0.4167      0.1747       0.000    
  12    10.00       9.928       9.875       9.830       9.794       9.753       9.701       9.609       9.500       9.409    
        9.312       9.195       9.080       8.944       8.811       8.662       8.525       8.432       8.335       8.201    
        7.998       7.778       7.564       7.349       7.030       6.780       6.586       6.285       6.034       5.887    
        5.711       5.456       5.208       4.965       4.776       4.585       4.356       4.098       3.767       3.418    
        3.089       2.732       2.257       1.852       1.502       1.120      0.7582      0.3932      0.1305       0.000    
  13    10.00       9.942       9.892       9.844       9.801       9.753       9.671       9.565       9.463       9.370    
        9.262       9.148       9.029       8.888       8.742       8.602       8.502       8.387       8.260       8.001    
        7.697       7.464       7.227       6.942       6.695       6.571       6.354       6.088       5.947       5.811    
        5.602       5.378       5.181       4.997       4.833       4.656       4.383       4.034       3.716       3.387    
        3.073       2.703       2.194       1.818       1.517       1.112      0.6973      0.3397      0.1040       0.000    
  14    10.00       9.955       9.912       9.862       9.803       9.723       9.617       9.512       9.421       9.319    
        9.207       9.101       8.967       8.819       8.691       8.569       8.420       8.273       8.026       7.641    
        7.349       7.122       6.807       6.581       6.462       6.349       6.135       5.967       5.833       5.694    
        5.511       5.344       5.201       5.038       4.861       4.684       4.378       3.999       3.671       3.333    
        3.011       2.551       2.068       1.771       1.430       1.065      0.6988      0.3148      8.9638E-02   0.000    
  15    10.00       9.964       9.920       9.864       9.793       9.678       9.550       9.458       9.372       9.272    
        9.185       9.076       8.906       8.738       8.620       8.435       8.248       8.092       7.717       7.295    
        7.028       6.726       6.457       6.369       6.302       6.162       5.980       5.823       5.717       5.607    
        5.464       5.340       5.220       5.076       4.901       4.686       4.332       3.914       3.569       3.261    
        2.916       2.453       2.072       1.702       1.296      0.9750      0.6248      0.2888      9.7688E-02   0.000    
  16    10.00       9.971       9.923       9.854       9.751       9.615       9.501       9.427       9.352       9.251    
        9.147       8.989       8.779       8.617       8.449       8.237       8.110       7.801       7.271       6.899    
        6.661       6.399       6.298       6.244       6.127       5.949       5.805       5.723       5.666       5.569    
        5.447       5.334       5.233       5.090       4.880       4.594       4.193       3.834       3.560       3.234    
        2.834       2.379       1.970       1.569       1.219      0.8640      0.5608      0.2918      0.1042       0.000    
  17    10.00       9.966       9.910       9.819       9.702       9.561       9.460       9.397       9.308       9.202    
        9.019       8.799       8.623       8.458       8.242       8.030       7.768       7.274       6.827       6.590    
        6.401       6.257       6.186       6.066       5.887       5.759       5.714       5.683       5.626       5.527    
        5.420       5.319       5.214       5.073       4.779       4.408       4.097       3.862       3.597       3.204    
        2.699       2.255       1.875       1.499       1.094      0.7210      0.4782      0.2651      0.1104       0.000    
  18    10.00       9.952       9.880       9.775       9.623       9.505       9.434       9.339       9.232       9.076    
        8.845       8.661       8.495       8.246       7.965       7.672       7.302       6.868       6.590       6.406    
        6.261       6.135       6.021       5.860       5.735       5.693       5.672       5.643       5.575       5.481    
        5.389       5.288       5.155       4.939       4.640       4.339       4.094       3.901       3.570       3.090    
        2.604       2.139       1.757       1.404       1.016      0.6654      0.4044      0.2216      0.1034       0.000    
  19    10.00       9.937       9.853       9.701       9.550       9.481       9.392       9.270       9.141       8.964    
        8.758       8.577       8.314       7.959       7.664       7.373       6.974       6.615       6.437       6.316    
        6.163       6.004       5.876       5.740       5.671       5.649       5.623       5.576       5.500       5.420    
        5.333       5.223       5.050       4.829       4.583       4.328       4.117       3.871       3.404       2.931    
        2.547       2.073       1.659       1.315      0.9333      0.5998      0.3640      0.2103      0.1053       0.000    
  20    10.00       9.918       9.791       9.633       9.522       9.443       9.345       9.216       9.062       8.898    
        8.684       8.415       8.058       7.730       7.466       7.117       6.751       6.566       6.415       6.250    
        6.084       5.919       5.762       5.660       5.613       5.575       5.523       5.475       5.404       5.334    
        5.251       5.143       4.971       4.774       4.552       4.334       4.111       3.730       3.240       2.839    
        2.414       1.954       1.587       1.243      0.8877      0.5390      0.3161      0.2122      0.1072       0.000    
  21    10.00       9.871       9.740       9.611       9.495       9.407       9.300       9.136       8.980       8.821    
        8.543       8.203       7.866       7.595       7.311       6.974       6.711       6.549       6.376       6.197    
        5.995       5.807       5.669       5.565       5.488       5.421       5.379       5.337       5.266       5.213    
        5.153       5.043       4.895       4.724       4.526       4.316       4.003       3.617       3.191       2.714    
        2.287       1.855       1.538       1.222      0.7712      0.4549      0.3238      0.2362      0.1135       0.000    
  22    10.00       9.852       9.698       9.573       9.475       9.370       9.213       9.050       8.911       8.700    
        8.406       8.050       7.758       7.532       7.220       6.909       6.686       6.519       6.348       6.132    
        5.899       5.709       5.531       5.372       5.270       5.221       5.190       5.137       5.111       5.080    
        5.033       4.945       4.834       4.675       4.489       4.286       3.958       3.571       3.069       2.599    
        2.229       1.838       1.486       1.018      0.6340      0.4556      0.3424      0.2276      9.0333E-02   0.000    
  23    10.00       9.819       9.670       9.566       9.459       9.302       9.126       8.997       8.822       8.602    
        8.301       7.984       7.758       7.472       7.136       6.864       6.676       6.523       6.329       6.070    
        5.822       5.599       5.364       5.083       4.835       4.789       4.863       4.899       4.943       4.954    
        4.929       4.866       4.768       4.639       4.461       4.246       3.939       3.456       2.928       2.540    
        2.185       1.740       1.235      0.8298      0.6176      0.4670      0.3414      0.2165      0.1008       0.000    
  24    10.00       9.794       9.686       9.567       9.416       9.244       9.105       8.964       8.792       8.537    
        8.260       8.013       7.765       7.421       7.065       6.850       6.694       6.536       6.302       6.041    
        5.795       5.539       5.180       4.536       3.567       3.899       4.346       4.627       4.773       4.828    
        4.835       4.790       4.717       4.585       4.413       4.196       3.815       3.304       2.853       2.441    
        2.010       1.540       1.093      0.7904      0.6136      0.4637      0.3331      0.2523      0.1389       0.000    
  25    10.00       9.821       9.707       9.563       9.404       9.250       9.107       8.974       8.762       8.509    
        8.276       8.038       7.735       7.356       7.080       6.885       6.712       6.525       6.308       6.067    
        5.801       5.546       4.893       3.521      0.3993       2.941       3.903       4.383       4.632       4.740    
        4.762       4.736       4.660       4.506       4.323       4.059       3.664       3.173       2.765       2.320    
        1.823       1.379       1.015      0.7808      0.6376      0.4982      0.3639      0.2681      0.1750       0.000    
  26    10.00       9.847       9.739       9.584       9.421       9.286       9.138       8.969       8.752       8.555    
        8.355       8.039       7.655       7.333       7.132       6.956       6.752       6.510       6.279       6.072    
        5.868       5.590       4.989       3.997       2.951       3.472       4.031       4.379       4.590       4.701    
        4.717       4.688       4.592       4.441       4.264       3.977       3.460       3.008       2.665       2.121    
        1.582       1.217       1.003      0.8463      0.6942      0.5398      0.4001      0.2930      0.1749       0.000    
  27    10.00       9.880       9.750       9.618       9.472       9.315       9.168       9.005       8.811       8.623    
        8.355       7.981       7.649       7.387       7.211       7.014       6.745       6.480       6.293       6.129    
        5.959       5.673       5.225       4.681       4.103       4.128       4.327       4.508       4.640       4.699    
        4.695       4.656       4.562       4.407       4.169       3.721       3.233       2.879       2.353       1.821    
        1.437       1.199       1.045      0.9118      0.7716      0.5937      0.4273      0.3198      0.2149       0.000    
  28    10.00       9.891       9.781       9.654       9.522       9.374       9.221       9.057       8.875       8.657    
        8.328       7.989       7.701       7.451       7.269       7.069       6.840       6.581       6.335       6.173    
        6.022       5.818       5.522       5.119       4.758       4.597       4.610       4.690       4.718       4.725    
        4.692       4.634       4.521       4.305       3.951       3.484       3.072       2.589       2.072       1.721    
        1.443       1.248       1.095      0.9627      0.8187      0.6484      0.4838      0.3635      0.2216       0.000    
  29    10.00       9.896       9.791       9.697       9.569       9.434       9.287       9.122       8.929       8.637    
        8.313       8.017       7.744       7.537       7.328       7.113       6.904       6.698       6.462       6.254    
        6.093       5.922       5.720       5.474       5.147       4.971       4.903       4.870       4.842       4.775    
        4.694       4.579       4.434       4.138       3.718       3.300       2.875       2.391       1.999       1.746    
        1.519       1.305       1.137       1.009      0.8685      0.6940      0.5245      0.3839      0.2238       0.000    
  30    10.00       9.905       9.818       9.735       9.624       9.499       9.369       9.186       8.944       8.647    
        8.313       8.012       7.784       7.579       7.372       7.165       6.991       6.815       6.604       6.383    
        6.193       6.036       5.861       5.685       5.474       5.280       5.196       5.069       4.975       4.836    
        4.671       4.478       4.271       3.956       3.619       3.226       2.789       2.347       2.061       1.830    
        1.574       1.363       1.202       1.049      0.8908      0.7363      0.5587      0.3999      0.2416       0.000    
  31    10.00       9.921       9.846       9.768       9.687       9.589       9.446       9.230       8.951       8.642    
        8.320       8.040       7.823       7.614       7.430       7.238       7.058       6.924       6.720       6.509    
        6.327       6.164       6.010       5.844       5.701       5.548       5.397       5.246       5.068       4.865    
        4.616       4.370       4.155       3.909       3.574       3.166       2.752       2.390       2.160       1.952    
        1.686       1.443       1.255       1.093      0.9361      0.7725      0.5944      0.4271      0.2350       0.000    
  32    10.00       9.933       9.876       9.808       9.729       9.640       9.498       9.253       8.990       8.709    
        8.370       8.079       7.863       7.666       7.480       7.319       7.160       6.993       6.827       6.628    
        6.435       6.259       6.103       5.944       5.816       5.709       5.541       5.349       5.103       4.830    
        4.569       4.336       4.114       3.879       3.560       3.194       2.846       2.531       2.285       2.050    
        1.803       1.549       1.348       1.159      0.9788      0.8309      0.6486      0.4273      0.2122       0.000    
  33    10.00       9.943       9.895       9.840       9.764       9.662       9.482       9.244       9.024       8.763    
        8.434       8.146       7.922       7.708       7.534       7.397       7.258       7.091       6.910       6.723    
        6.523       6.333       6.148       5.996       5.894       5.787       5.600       5.348       5.092       4.838    
        4.587       4.377       4.156       3.863       3.563       3.233       2.936       2.682       2.425       2.168    
        1.937       1.696       1.476       1.277       1.077      0.9016      0.6968      0.4360      0.2053       0.000    
  34    10.00       9.948       9.916       9.868       9.774       9.633       9.458       9.283       9.057       8.774    
        8.483       8.202       7.963       7.748       7.593       7.486       7.338       7.170       6.970       6.792    
        6.606       6.382       6.199       6.059       5.953       5.813       5.590       5.366       5.106       4.827    
        4.616       4.436       4.231       3.943       3.637       3.336       3.062       2.833       2.570       2.311    
        2.090       1.868       1.635       1.431       1.219       1.013      0.7523      0.4832      0.2548       0.000    
  35    10.00       9.957       9.920       9.859       9.742       9.593       9.465       9.316       9.107       8.803    
        8.492       8.231       7.988       7.804       7.675       7.555       7.400       7.211       7.016       6.818    
        6.632       6.430       6.243       6.110       5.994       5.856       5.625       5.356       5.079       4.816    
        4.659       4.485       4.266       4.045       3.784       3.466       3.190       3.004       2.737       2.448    
        2.240       2.018       1.796       1.596       1.359       1.129      0.8669      0.5785      0.2891       0.000    
  36    10.00       9.954       9.902       9.833       9.716       9.575       9.459       9.319       9.110       8.824    
        8.499       8.215       8.033       7.889       7.767       7.618       7.430       7.244       7.033       6.778    
        6.581       6.418       6.259       6.143       6.032       5.865       5.614       5.336       5.052       4.820    
        4.670       4.521       4.319       4.111       3.888       3.598       3.323       3.119       2.885       2.574    
        2.341       2.116       1.890       1.725       1.496       1.241      0.9797      0.6786      0.3451       0.000    
  37    10.00       9.940       9.882       9.807       9.688       9.559       9.429       9.292       9.099       8.790    
        8.461       8.228       8.116       7.979       7.818       7.666       7.448       7.220       6.952       6.694    
        6.548       6.420       6.268       6.146       6.015       5.811       5.577       5.283       5.036       4.866    
        4.715       4.552       4.345       4.163       3.931       3.655       3.437       3.240       2.980       2.671    
        2.391       2.172       1.992       1.807       1.591       1.354       1.103      0.7658      0.4149       0.000    
  38    10.00       9.933       9.858       9.777       9.667       9.540       9.395       9.252       9.046       8.760    
        8.507       8.321       8.179       8.053       7.870       7.632       7.381       7.099       6.808       6.646    
        6.534       6.374       6.226       6.123       5.976       5.761       5.477       5.216       5.075       4.938    
        4.771       4.587       4.389       4.204       3.976       3.723       3.528       3.327       3.018       2.694    
        2.451       2.249       2.065       1.881       1.689       1.460       1.201      0.8762      0.4546       0.000    
  39    10.00       9.914       9.839       9.758       9.649       9.507       9.350       9.199       9.010       8.778    
        8.581       8.442       8.281       8.099       7.824       7.512       7.198       6.894       6.721       6.621    
        6.463       6.290       6.183       6.086       5.945       5.697       5.420       5.253       5.128       4.984    
        4.804       4.629       4.429       4.231       4.038       3.828       3.604       3.369       3.051       2.732    
        2.477       2.275       2.132       1.985       1.776       1.542       1.281      0.9283      0.4546       0.000    
  40    10.00       9.900       9.826       9.744       9.634       9.484       9.323       9.169       9.009       8.816    
        8.653       8.532       8.328       8.029       7.675       7.325       7.008       6.803       6.692       6.566    
        6.391       6.242       6.149       6.028       5.864       5.662       5.482       5.316       5.168       5.032    
        4.866       4.670       4.467       4.280       4.103       3.890       3.649       3.413       3.068       2.719    
        2.489       2.321       2.172       2.046       1.835       1.574       1.335      0.9645      0.4762       0.000    
  41    10.00       9.907       9.819       9.729       9.607       9.470       9.329       9.191       9.037       8.864    
        8.709       8.558       8.276       7.892       7.501       7.184       6.938       6.767       6.651       6.506    
        6.328       6.202       6.095       5.967       5.824       5.681       5.549       5.390       5.213       5.056    
        4.906       4.720       4.515       4.345       4.159       3.952       3.705       3.376       2.994       2.726    
        2.539       2.364       2.227       2.068       1.845       1.588       1.375       1.023      0.5242       0.000    
  42    10.00       9.909       9.812       9.728       9.622       9.494       9.353       9.199       9.060       8.926    
        8.737       8.462       8.106       7.709       7.358       7.116       6.904       6.744       6.608       6.434    
        6.271       6.154       6.044       5.953       5.834       5.729       5.607       5.423       5.235       5.095    
        4.963       4.761       4.541       4.382       4.223       3.990       3.673       3.280       2.940       2.736    
        2.588       2.439       2.270       2.063       1.832       1.624       1.410       1.066      0.5484       0.000    
  43    10.00       9.910       9.821       9.735       9.650       9.536       9.394       9.242       9.090       8.895    
        8.620       8.301       7.938       7.556       7.287       7.084       6.885       6.716       6.551       6.379    
        6.228       6.118       6.038       5.968       5.864       5.750       5.630       5.451       5.282       5.168    
        5.001       4.780       4.573       4.416       4.233       3.948       3.576       3.197       2.961       2.800    
        2.642       2.481       2.275       2.052       1.841       1.640       1.448       1.063      0.4786       0.000    
  44    10.00       9.905       9.823       9.748       9.654       9.567       9.446       9.259       9.052       8.780    
        8.501       8.166       7.769       7.492       7.285       7.061       6.843       6.650       6.471       6.318    
        6.210       6.124       6.050       5.977       5.887       5.772       5.630       5.489       5.359       5.215    
        5.054       4.854       4.621       4.399       4.184       3.894       3.505       3.178       2.989       2.834    
        2.682       2.505       2.298       2.099       1.878       1.656       1.405      0.9098      0.4021       0.000    
  45    10.00       9.904       9.837       9.751       9.662       9.584       9.406       9.192       8.948       8.680    
        8.445       8.044       7.675       7.469       7.256       7.011       6.764       6.567       6.410       6.301    
        6.225       6.149       6.071       5.984       5.888       5.782       5.664       5.544       5.438       5.290    
        5.097       4.883       4.647       4.379       4.135       3.820       3.455       3.197       3.042       2.886    
        2.690       2.485       2.303       2.123       1.930       1.691       1.267      0.7626      0.3862       0.000    
  46    10.00       9.921       9.849       9.758       9.659       9.511       9.323       9.145       8.922       8.660    
        8.321       7.952       7.656       7.399       7.181       6.939       6.692       6.539       6.422       6.322    
        6.251       6.181       6.088       5.985       5.890       5.796       5.700       5.593       5.487       5.351    
        5.171       4.948       4.685       4.382       4.042       3.704       3.438       3.263       3.090       2.910    
        2.685       2.471       2.290       2.146       1.939       1.605       1.135      0.7183      0.3649       0.000    
  47    10.00       9.938       9.871       9.776       9.606       9.426       9.266       9.113       8.913       8.586    
        8.220       7.878       7.593       7.377       7.143       6.875       6.663       6.527       6.434       6.352    
        6.276       6.194       6.103       6.001       5.907       5.826       5.741       5.635       5.512       5.378    
        5.219       5.020       4.681       4.280       3.960       3.711       3.481       3.330       3.171       2.922    
        2.653       2.429       2.260       2.143       1.883       1.484       1.054      0.6911      0.3547       0.000    
  48    10.00       9.946       9.875       9.732       9.560       9.411       9.239       9.085       8.871       8.527    
        8.128       7.818       7.588       7.329       7.058       6.818       6.659       6.525       6.436       6.375    
        6.299       6.201       6.101       6.012       5.937       5.868       5.787       5.670       5.525       5.368    
        5.203       4.976       4.625       4.296       4.017       3.770       3.554       3.383       3.178       2.879    
        2.595       2.415       2.274       2.054       1.707       1.351       1.006      0.6960      0.3744       0.000    
  49    10.00       9.943       9.841       9.713       9.573       9.399       9.227       9.054       8.788       8.423    
        8.080       7.790       7.512       7.267       7.059       6.833       6.627       6.506       6.447       6.388    
        6.317       6.207       6.095       6.022       5.960       5.906       5.814       5.673       5.508       5.357    
        5.185       4.908       4.611       4.390       4.135       3.845       3.583       3.377       3.140       2.822    
        2.592       2.435       2.225       1.894       1.585       1.294      0.9948      0.6959      0.3732       0.000    
  50    10.00       9.935       9.830       9.699       9.571       9.409       9.216       9.000       8.721       8.432    
        8.074       7.710       7.453       7.257       7.081       6.826       6.598       6.508       6.456       6.396    
        6.325       6.211       6.097       6.026       5.973       5.923       5.819       5.658       5.490       5.348    
        5.171       4.885       4.656       4.457       4.190       3.902       3.628       3.346       3.023       2.756    
        2.638       2.459       2.135       1.803       1.573       1.292       1.009      0.6816      0.3039       0.000    

 HEAD WILL BE SAVED ON UNIT   51 AT END OF TIME STEP  37, STRESS PERIOD    2

 DRAWDOWN WILL BE SAVED ON UNIT   52 AT END OF TIME STEP  37, STRESS PERIOD    2
1
  VOLUMETRIC BUDGET FOR ENTIRE MODEL AT END OF TIME STEP 37 IN STRESS PERIOD   2
  ------------------------------------------------------------------------------

     CUMULATIVE VOLUMES      L**3       RATES FOR THIS TIME STEP      L**3/T
     ------------------                 ------------------------

           IN:                                      IN:
           ---                                      ---
             STORAGE =       18361.2891               STORAGE =         484.1826
       CONSTANT HEAD =       22817.9062         CONSTANT HEAD =         611.4328
               WELLS =           0.0000                 WELLS =           0.0000

            TOTAL IN =       41179.1953              TOTAL IN =        1095.6154

          OUT:                                     OUT:
          ----                                     ----
             STORAGE =       9.4320E-03               STORAGE =           0.0000
       CONSTANT HEAD =       22679.1836         CONSTANT HEAD =         595.6157
               WELLS =       18500.0000                 WELLS =         500.0000

           TOTAL OUT =       41179.1914             TOTAL OUT =        1095.6157

            IN - OUT =       3.9063E-03              IN - OUT =      -3.6621E-04

 PERCENT DISCREPANCY =           0.00     PERCENT DISCREPANCY =           0.00






          TIME SUMMARY AT END OF TIME STEP  37 IN STRESS PERIOD    2
                    SECONDS     MINUTES      HOURS       DAYS        YEARS
                    -----------------------------------------------------------
   TIME STEP LENGTH  86400.      1440.0      24.000      1.0000     2.73785E-03
 STRESS PERIOD TIME 3.19680E+06  53280.      888.00      37.000     0.10130    
         TOTAL TIME 3.28320E+06  54720.      912.00      38.000     0.10404    
1
 
 SOLVING FOR HEAD 

 OUTPUT CONTROL FOR STRESS PERIOD    2   TIME STEP  38
    SAVE HEAD FOR ALL LAYERS
    SAVE DRAWDOWN FOR ALL LAYERS
    SAVE BUDGET
    PRINT HEAD FOR ALL LAYERS
    PRINT BUDGET
 UBDSV1 SAVING "         STORAGE" ON UNIT  53 AT TIME STEP 38, STRESS PERIOD   2
 UBDSV2 SAVING "   CONSTANT HEAD" ON UNIT  53 AT TIME STEP 38, STRESS PERIOD   2
 UBDSV1 SAVING "FLOW RIGHT FACE " ON UNIT  53 AT TIME STEP 38, STRESS PERIOD   2
 UBDSV1 SAVING "FLOW FRONT FACE " ON UNIT  53 AT TIME STEP 38, STRESS PERIOD   2
1
              HEAD IN LAYER   1 AT END OF TIME STEP  38 IN STRESS PERIOD    2
  ---------------------------------------------------------------------------

            1           2           3           4           5           6           7           8           9          10
           11          12          13          14          15          16          17          18          19          20
           21          22          23          24          25          26          27          28          29          30
           31          32          33          34          35          36          37          38          39          40
           41          42          43          44          45          46          47          48          49          50
 ........................................................................................................................
   1    10.00       9.958       9.899       9.832       9.766       9.692       9.621       9.552       9.464       9.378    
        9.311       9.245       9.178       9.113       9.007       8.879       8.737       8.625       8.567       8.499    
        8.418       8.353       8.290       8.215       8.116       7.921       7.700       7.545       7.394       7.251    
        7.065       6.767       6.385       5.962       5.522       5.055       4.592       4.207       3.704       3.157    
        2.708       2.279       1.803       1.404       1.158      0.9497      0.7847      0.6652      0.4464       0.000    
   2    10.00       9.958       9.904       9.836       9.770       9.704       9.634       9.542       9.446       9.375    
        9.317       9.261       9.205       9.124       9.003       8.869       8.736       8.624       8.565       8.489    
        8.408       8.359       8.308       8.231       8.105       7.914       7.714       7.554       7.401       7.262    
        7.054       6.742       6.342       5.860       5.391       4.939       4.538       4.166       3.654       3.125    
        2.675       2.192       1.758       1.445       1.213       1.034      0.8294      0.6474      0.3612       0.000    
   3    10.00       9.952       9.898       9.838       9.780       9.713       9.623       9.526       9.458       9.395    
        9.330       9.279       9.229       9.151       9.027       8.863       8.717       8.627       8.557       8.480    
        8.414       8.363       8.310       8.207       8.071       7.901       7.727       7.602       7.423       7.241    
        6.981       6.611       6.155       5.688       5.271       4.849       4.457       4.057       3.527       3.037    
        2.650       2.205       1.807       1.520       1.291       1.105      0.8629      0.5786      0.2623       0.000    
   4    10.00       9.952       9.899       9.841       9.775       9.697       9.605       9.531       9.472       9.407    
        9.350       9.307       9.252       9.163       9.043       8.868       8.716       8.632       8.553       8.485    
        8.414       8.350       8.283       8.175       8.041       7.889       7.731       7.577       7.419       7.213    
        6.886       6.398       5.914       5.559       5.212       4.776       4.304       3.836       3.412       3.042    
        2.680       2.266       1.892       1.633       1.375       1.138      0.8385      0.5205      0.2493       0.000    
   5    10.00       9.948       9.896       9.830       9.763       9.691       9.608       9.544       9.483       9.422    
        9.373       9.331       9.258       9.155       9.022       8.862       8.734       8.641       8.564       8.472    
        8.387       8.319       8.237       8.131       8.011       7.856       7.699       7.557       7.398       7.148    
        6.680       6.135       5.747       5.469       5.125       4.653       4.166       3.741       3.422       3.087    
        2.732       2.351       1.980       1.739       1.461       1.121      0.7634      0.4642      0.2335       0.000    
   6    10.00       9.941       9.879       9.824       9.763       9.684       9.614       9.559       9.495       9.438    
        9.391       9.340       9.249       9.133       9.017       8.883       8.753       8.647       8.544       8.438    
        8.353       8.273       8.201       8.106       7.953       7.800       7.674       7.529       7.309       6.932    
        6.416       5.923       5.600       5.359       5.049       4.582       4.096       3.737       3.468       3.164    
        2.838       2.503       2.123       1.800       1.432       1.057      0.6744      0.4007      0.2206       0.000    
   7    10.00       9.930       9.869       9.818       9.755       9.689       9.627       9.575       9.516       9.459    
        9.402       9.326       9.226       9.116       9.006       8.901       8.765       8.621       8.503       8.398    
        8.309       8.232       8.170       8.051       7.895       7.765       7.637       7.444       7.093       6.611    
        6.118       5.718       5.498       5.283       4.922       4.486       4.158       3.809       3.515       3.316    
        3.007       2.647       2.200       1.739       1.329      0.9185      0.5812      0.4038      0.2079       0.000    
   8    10.00       9.929       9.874       9.816       9.753       9.695       9.640       9.588       9.534       9.480    
        9.404       9.307       9.208       9.104       9.002       8.885       8.715       8.563       8.467       8.367    
        8.267       8.200       8.109       7.982       7.846       7.710       7.496       7.197       6.756       6.333    
        5.962       5.651       5.448       5.202       4.818       4.456       4.161       3.903       3.674       3.445    
        3.144       2.692       2.143       1.651       1.223      0.8603      0.6154      0.3956      0.1896       0.000    
   9    10.00       9.941       9.874       9.810       9.763       9.715       9.660       9.605       9.545       9.487    
        9.400       9.289       9.182       9.079       8.970       8.831       8.667       8.528       8.423       8.320    
        8.231       8.146       8.023       7.902       7.776       7.611       7.304       6.902       6.489       6.180    
        5.875       5.615       5.392       5.084       4.727       4.424       4.199       4.008       3.803       3.552    
        3.191       2.698       2.138       1.650       1.233      0.8796      0.6211      0.3992      0.2041       0.000    
  10    10.00       9.938       9.868       9.816       9.772       9.726       9.676       9.629       9.559       9.474    
        9.369       9.254       9.151       9.054       8.943       8.773       8.600       8.479       8.382       8.285    
        8.201       8.084       7.948       7.812       7.666       7.430       7.038       6.621       6.267       6.018    
        5.820       5.598       5.330       5.017       4.683       4.426       4.253       4.087       3.866       3.578    
        3.165       2.654       2.143       1.726       1.335      0.9683      0.6407      0.4240      0.2279       0.000    
  11    10.00       9.925       9.868       9.825       9.782       9.743       9.697       9.631       9.537       9.441    
        9.336       9.223       9.129       9.013       8.861       8.699       8.557       8.449       8.360       8.262    
        8.138       7.989       7.806       7.651       7.410       7.081       6.747       6.436       6.136       5.948    
        5.795       5.516       5.221       4.962       4.704       4.503       4.323       4.112       3.839       3.492    
        3.105       2.710       2.219       1.807       1.435       1.071      0.7201      0.4165      0.1747       0.000    
  12    10.00       9.927       9.875       9.830       9.793       9.752       9.700       9.608       9.499       9.408    
        9.310       9.193       9.078       8.940       8.807       8.658       8.521       8.427       8.330       8.195    
        7.992       7.771       7.556       7.340       7.020       6.770       6.576       6.274       6.023       5.877    
        5.701       5.446       5.199       4.957       4.769       4.578       4.350       4.093       3.763       3.415    
        3.086       2.729       2.255       1.851       1.501       1.120      0.7579      0.3930      0.1304       0.000    
  13    10.00       9.941       9.892       9.844       9.801       9.752       9.670       9.564       9.462       9.369    
        9.260       9.145       9.026       8.884       8.738       8.597       8.497       8.382       8.254       7.994    
        7.689       7.455       7.217       6.930       6.683       6.559       6.342       6.076       5.935       5.799    
        5.591       5.367       5.171       4.988       4.824       4.648       4.377       4.029       3.712       3.384    
        3.070       2.701       2.193       1.817       1.516       1.111      0.6970      0.3395      0.1039       0.000    
  14    10.00       9.955       9.912       9.862       9.802       9.722       9.616       9.511       9.419       9.317    
        9.205       9.098       8.964       8.815       8.686       8.564       8.415       8.267       8.018       7.632    
        7.338       7.110       6.794       6.567       6.448       6.335       6.121       5.953       5.820       5.681    
        5.499       5.332       5.190       5.028       4.852       4.676       4.371       3.994       3.666       3.329    
        3.007       2.549       2.066       1.770       1.429       1.065      0.6984      0.3146      8.9597E-02   0.000    
  15    10.00       9.964       9.920       9.864       9.793       9.677       9.549       9.456       9.370       9.269    
        9.182       9.073       8.902       8.733       8.614       8.429       8.241       8.084       7.706       7.283    
        7.015       6.712       6.442       6.353       6.287       6.147       5.964       5.807       5.702       5.593    
        5.450       5.327       5.208       5.065       4.891       4.677       4.324       3.908       3.564       3.256    
        2.912       2.451       2.070       1.701       1.295      0.9744      0.6244      0.2886      9.7638E-02   0.000    
  16    10.00       9.970       9.923       9.854       9.751       9.614       9.499       9.425       9.350       9.249    
        9.144       8.985       8.774       8.611       8.442       8.229       8.101       7.791       7.258       6.884    
        6.645       6.382       6.282       6.228       6.111       5.932       5.789       5.707       5.650       5.554    
        5.433       5.320       5.221       5.078       4.870       4.585       4.185       3.827       3.555       3.229    
        2.831       2.377       1.968       1.567       1.219      0.8634      0.5604      0.2916      0.1041       0.000    
  17    10.00       9.966       9.910       9.818       9.701       9.560       9.459       9.395       9.305       9.199    
        9.015       8.794       8.616       8.450       8.234       8.020       7.757       7.260       6.811       6.573    
        6.384       6.239       6.169       6.049       5.870       5.742       5.697       5.666       5.609       5.511    
        5.405       5.305       5.201       5.060       4.768       4.398       4.089       3.855       3.591       3.200    
        2.696       2.252       1.873       1.497       1.093      0.7206      0.4779      0.2649      0.1103       0.000    
  18    10.00       9.952       9.880       9.774       9.621       9.503       9.432       9.337       9.229       9.072    
        8.839       8.655       8.488       8.237       7.954       7.660       7.288       6.851       6.573       6.388    
        6.243       6.117       6.003       5.842       5.717       5.675       5.655       5.626       5.558       5.464    
        5.373       5.273       5.141       4.927       4.628       4.329       4.086       3.894       3.564       3.085    
        2.600       2.137       1.755       1.403       1.015      0.6649      0.4041      0.2215      0.1034       0.000    
  19    10.00       9.936       9.853       9.700       9.548       9.479       9.390       9.268       9.138       8.959    
        8.752       8.570       8.305       7.948       7.651       7.359       6.957       6.598       6.419       6.298    
        6.144       5.986       5.858       5.722       5.653       5.630       5.605       5.558       5.482       5.403    
        5.316       5.208       5.036       4.816       4.571       4.317       4.108       3.863       3.398       2.927    
        2.543       2.070       1.657       1.314      0.9326      0.5993      0.3637      0.2102      0.1052       0.000    
  20    10.00       9.918       9.790       9.632       9.520       9.441       9.343       9.213       9.058       8.893    
        8.677       8.406       8.047       7.717       7.452       7.101       6.733       6.548       6.396       6.232    
        6.065       5.900       5.743       5.641       5.594       5.556       5.504       5.456       5.386       5.316    
        5.234       5.126       4.956       4.760       4.540       4.323       4.101       3.723       3.234       2.834    
        2.410       1.952       1.585       1.242      0.8869      0.5386      0.3159      0.2121      0.1071       0.000    
  21    10.00       9.870       9.739       9.610       9.494       9.405       9.298       9.132       8.976       8.815    
        8.535       8.193       7.854       7.581       7.296       6.958       6.694       6.531       6.358       6.178    
        5.976       5.788       5.649       5.546       5.469       5.401       5.360       5.318       5.247       5.194    
        5.135       5.025       4.879       4.710       4.513       4.305       3.993       3.610       3.185       2.710    
        2.284       1.853       1.536       1.221      0.7706      0.4546      0.3236      0.2360      0.1134       0.000    
  22    10.00       9.851       9.698       9.572       9.473       9.367       9.210       9.045       8.906       8.694    
        8.398       8.039       7.745       7.518       7.205       6.892       6.669       6.501       6.329       6.113    
        5.879       5.689       5.511       5.353       5.250       5.201       5.170       5.117       5.092       5.061    
        5.014       4.928       4.817       4.660       4.476       4.274       3.948       3.563       3.064       2.595    
        2.226       1.836       1.484       1.017      0.6335      0.4553      0.3421      0.2274      9.0279E-02   0.000    
  23    10.00       9.818       9.669       9.564       9.457       9.300       9.122       8.993       8.816       8.595    
        8.292       7.972       7.745       7.458       7.120       6.847       6.658       6.505       6.311       6.051    
        5.803       5.579       5.344       5.063       4.814       4.768       4.842       4.878       4.923       4.934    
        4.910       4.848       4.750       4.623       4.447       4.234       3.929       3.449       2.923       2.536    
        2.183       1.738       1.234      0.8292      0.6172      0.4667      0.3412      0.2163      0.1007       0.000    
  24    10.00       9.794       9.685       9.565       9.413       9.241       9.101       8.960       8.786       8.530    
        8.251       8.002       7.752       7.406       7.049       6.833       6.677       6.518       6.284       6.022    
        5.776       5.519       5.159       4.515       3.545       3.877       4.325       4.606       4.752       4.808    
        4.815       4.772       4.699       4.569       4.398       4.183       3.805       3.297       2.848       2.438    
        2.008       1.538       1.092      0.7899      0.6133      0.4635      0.3329      0.2522      0.1388       0.000    
  25    10.00       9.820       9.706       9.561       9.402       9.247       9.103       8.969       8.756       8.501    
        8.267       8.027       7.722       7.342       7.064       6.868       6.695       6.507       6.289       6.048    
        5.782       5.526       4.872       3.499      0.3758       2.918       3.881       4.361       4.611       4.719    
        4.742       4.717       4.642       4.490       4.309       4.047       3.655       3.167       2.761       2.316    
        1.821       1.378       1.015      0.7804      0.6372      0.4979      0.3637      0.2680      0.1749       0.000    
  26    10.00       9.846       9.738       9.582       9.418       9.282       9.134       8.964       8.746       8.547    
        8.346       8.028       7.642       7.318       7.116       6.940       6.734       6.492       6.260       6.053    
        5.849       5.570       4.968       3.975       2.929       3.449       4.008       4.357       4.568       4.680    
        4.697       4.669       4.575       4.425       4.250       3.965       3.452       3.002       2.660       2.118    
        1.581       1.216       1.003      0.8458      0.6938      0.5395      0.3999      0.2928      0.1748       0.000    
  27    10.00       9.880       9.749       9.616       9.470       9.312       9.164       9.000       8.805       8.616    
        8.346       7.970       7.636       7.373       7.196       6.998       6.728       6.462       6.274       6.110    
        5.940       5.653       5.205       4.660       4.081       4.106       4.304       4.486       4.618       4.678    
        4.676       4.637       4.544       4.392       4.155       3.710       3.225       2.874       2.349       1.819    
        1.436       1.199       1.044      0.9112      0.7712      0.5933      0.4271      0.3196      0.2148       0.000    
  28    10.00       9.891       9.780       9.653       9.520       9.371       9.218       9.053       8.869       8.650    
        8.319       7.978       7.689       7.437       7.254       7.054       6.824       6.564       6.317       6.154    
        6.003       5.799       5.502       5.098       4.736       4.575       4.587       4.668       4.697       4.704    
        4.673       4.616       4.504       4.290       3.940       3.475       3.065       2.585       2.069       1.719    
        1.442       1.247       1.094      0.9622      0.8182      0.6481      0.4836      0.3633      0.2215       0.000    
  29    10.00       9.896       9.790       9.696       9.567       9.431       9.284       9.118       8.924       8.630    
        8.304       8.007       7.732       7.524       7.314       7.098       6.888       6.681       6.444       6.236    
        6.074       5.903       5.700       5.454       5.126       4.949       4.881       4.848       4.821       4.756    
        4.675       4.562       4.419       4.126       3.709       3.293       2.870       2.388       1.997       1.744    
        1.518       1.304       1.137       1.008      0.8681      0.6937      0.5243      0.3837      0.2237       0.000    
  30    10.00       9.905       9.818       9.734       9.622       9.497       9.366       9.182       8.939       8.640    
        8.305       8.002       7.772       7.567       7.359       7.151       6.976       6.800       6.587       6.366    
        6.174       6.017       5.842       5.665       5.454       5.259       5.176       5.048       4.955       4.817    
        4.654       4.464       4.259       3.947       3.611       3.221       2.785       2.345       2.060       1.829    
        1.573       1.362       1.202       1.048      0.8904      0.7360      0.5584      0.3998      0.2415       0.000    
  31    10.00       9.921       9.845       9.767       9.686       9.587       9.444       9.227       8.946       8.635    
        8.312       8.030       7.812       7.602       7.417       7.225       7.043       6.909       6.705       6.492    
        6.310       6.146       5.992       5.825       5.683       5.529       5.378       5.227       5.050       4.849    
        4.602       4.359       4.146       3.901       3.568       3.162       2.749       2.388       2.159       1.951    
        1.685       1.443       1.255       1.093      0.9357      0.7722      0.5942      0.4269      0.2349       0.000    
  32    10.00       9.933       9.875       9.807       9.728       9.639       9.496       9.250       8.986       8.703    
        8.362       8.070       7.853       7.656       7.469       7.306       7.147       6.978       6.813       6.612    
        6.419       6.242       6.086       5.927       5.798       5.691       5.524       5.332       5.088       4.817    
        4.558       4.327       4.106       3.872       3.554       3.190       2.843       2.528       2.283       2.049    
        1.801       1.548       1.348       1.158      0.9784      0.8306      0.6484      0.4272      0.2121       0.000    
  33    10.00       9.942       9.895       9.840       9.763       9.661       9.480       9.241       9.020       8.758    
        8.427       8.138       7.913       7.698       7.523       7.386       7.245       7.078       6.896       6.709    
        6.507       6.317       6.132       5.980       5.878       5.771       5.584       5.334       5.079       4.827    
        4.578       4.370       4.149       3.858       3.558       3.230       2.934       2.680       2.424       2.167    
        1.936       1.695       1.475       1.276       1.077      0.9013      0.6966      0.4359      0.2053       0.000    
  34    10.00       9.948       9.916       9.868       9.773       9.632       9.457       9.280       9.054       8.770    
        8.477       8.195       7.954       7.738       7.583       7.476       7.327       7.158       6.957       6.779    
        6.592       6.368       6.184       6.045       5.938       5.798       5.576       5.354       5.096       4.819    
        4.609       4.430       4.225       3.938       3.633       3.333       3.060       2.831       2.568       2.310    
        2.089       1.868       1.634       1.431       1.219       1.013      0.7522      0.4831      0.2547       0.000    
  35    10.00       9.957       9.920       9.859       9.741       9.592       9.464       9.313       9.105       8.799    
        8.487       8.224       7.981       7.796       7.666       7.545       7.389       7.200       7.005       6.806    
        6.621       6.418       6.230       6.098       5.982       5.844       5.613       5.346       5.070       4.809    
        4.654       4.480       4.262       4.041       3.781       3.463       3.188       3.002       2.736       2.447    
        2.239       2.018       1.795       1.596       1.359       1.129      0.8668      0.5785      0.2891       0.000    
  36    10.00       9.954       9.902       9.833       9.715       9.574       9.458       9.317       9.107       8.820    
        8.495       8.209       8.027       7.882       7.759       7.609       7.421       7.235       7.023       6.768    
        6.571       6.408       6.249       6.133       6.022       5.855       5.605       5.329       5.047       4.815    
        4.666       4.517       4.316       4.108       3.885       3.596       3.321       3.118       2.884       2.573    
        2.340       2.116       1.889       1.725       1.496       1.241      0.9796      0.6785      0.3451       0.000    
  37    10.00       9.940       9.882       9.807       9.687       9.558       9.427       9.291       9.097       8.787    
        8.457       8.223       8.111       7.973       7.810       7.658       7.440       7.211       6.944       6.685    
        6.540       6.411       6.260       6.137       6.006       5.803       5.570       5.278       5.032       4.862    
        4.711       4.549       4.343       4.161       3.929       3.653       3.436       3.239       2.979       2.670    
        2.391       2.172       1.992       1.807       1.591       1.354       1.103      0.7658      0.4149       0.000    
  38    10.00       9.933       9.858       9.777       9.667       9.539       9.394       9.251       9.044       8.757    
        8.504       8.317       8.174       8.047       7.864       7.626       7.375       7.092       6.802       6.640    
        6.528       6.367       6.220       6.116       5.970       5.755       5.473       5.213       5.072       4.935    
        4.768       4.584       4.387       4.202       3.974       3.721       3.527       3.326       3.017       2.693    
        2.451       2.249       2.065       1.881       1.688       1.460       1.201      0.8761      0.4546       0.000    
  39    10.00       9.914       9.838       9.758       9.649       9.506       9.349       9.197       9.008       8.776    
        8.578       8.438       8.277       8.094       7.819       7.507       7.193       6.889       6.716       6.616    
        6.458       6.285       6.178       6.081       5.941       5.693       5.417       5.250       5.126       4.982    
        4.802       4.627       4.427       4.229       4.036       3.827       3.603       3.368       3.051       2.731    
        2.477       2.274       2.132       1.985       1.776       1.542       1.281      0.9283      0.4546       0.000    
  40    10.00       9.899       9.825       9.744       9.633       9.483       9.322       9.168       9.007       8.814    
        8.650       8.529       8.324       8.025       7.672       7.321       7.004       6.799       6.688       6.562    
        6.387       6.239       6.145       6.025       5.861       5.660       5.480       5.313       5.166       5.030    
        4.864       4.669       4.465       4.279       4.102       3.889       3.648       3.412       3.067       2.719    
        2.489       2.320       2.172       2.046       1.834       1.574       1.335      0.9644      0.4762       0.000    
  41    10.00       9.907       9.819       9.729       9.606       9.470       9.328       9.190       9.035       8.862    
        8.707       8.555       8.273       7.889       7.498       7.182       6.935       6.764       6.648       6.503    
        6.325       6.200       6.092       5.964       5.822       5.679       5.547       5.388       5.211       5.055    
        4.905       4.719       4.514       4.344       4.158       3.951       3.704       3.376       2.993       2.726    
        2.539       2.364       2.227       2.068       1.845       1.587       1.375       1.023      0.5242       0.000    
  42    10.00       9.909       9.812       9.728       9.621       9.494       9.352       9.198       9.059       8.925    
        8.736       8.460       8.104       7.707       7.356       7.114       6.902       6.742       6.605       6.432    
        6.269       6.152       6.042       5.951       5.832       5.728       5.605       5.422       5.233       5.093    
        4.961       4.760       4.540       4.381       4.222       3.990       3.672       3.280       2.940       2.736    
        2.588       2.439       2.269       2.063       1.832       1.624       1.410       1.066      0.5484       0.000    
  43    10.00       9.910       9.821       9.735       9.650       9.536       9.393       9.241       9.089       8.894    
        8.618       8.300       7.937       7.555       7.285       7.083       6.883       6.715       6.549       6.377    
        6.226       6.116       6.036       5.966       5.862       5.749       5.629       5.449       5.281       5.167    
        5.000       4.779       4.572       4.415       4.232       3.948       3.575       3.197       2.961       2.800    
        2.642       2.481       2.275       2.052       1.841       1.640       1.448       1.062      0.4786       0.000    
  44    10.00       9.905       9.823       9.748       9.654       9.566       9.445       9.258       9.051       8.779    
        8.500       8.165       7.768       7.491       7.284       7.060       6.842       6.649       6.469       6.316    
        6.209       6.122       6.048       5.976       5.886       5.771       5.629       5.488       5.358       5.214    
        5.053       4.853       4.620       4.398       4.183       3.893       3.505       3.178       2.989       2.833    
        2.682       2.504       2.297       2.099       1.878       1.655       1.405      0.9098      0.4020       0.000    
  45    10.00       9.904       9.837       9.751       9.662       9.583       9.406       9.191       8.947       8.679    
        8.444       8.043       7.674       7.468       7.255       7.010       6.763       6.566       6.409       6.300    
        6.223       6.148       6.070       5.983       5.887       5.781       5.663       5.543       5.437       5.289    
        5.096       4.883       4.646       4.378       4.134       3.819       3.454       3.197       3.041       2.885    
        2.689       2.484       2.303       2.123       1.930       1.691       1.266      0.7625      0.3862       0.000    
  46    10.00       9.921       9.849       9.757       9.659       9.511       9.323       9.145       8.921       8.659    
        8.320       7.951       7.656       7.398       7.180       6.938       6.692       6.538       6.421       6.321    
        6.250       6.180       6.087       5.984       5.889       5.795       5.698       5.592       5.486       5.350    
        5.170       4.947       4.685       4.382       4.042       3.704       3.438       3.262       3.090       2.910    
        2.684       2.471       2.290       2.146       1.938       1.605       1.135      0.7182      0.3649       0.000    
  47    10.00       9.938       9.871       9.776       9.606       9.426       9.265       9.113       8.912       8.585    
        8.220       7.877       7.592       7.376       7.143       6.875       6.663       6.526       6.433       6.351    
        6.275       6.193       6.102       6.000       5.906       5.825       5.740       5.634       5.511       5.377    
        5.218       5.020       4.680       4.279       3.960       3.711       3.480       3.330       3.171       2.922    
        2.653       2.428       2.260       2.143       1.883       1.484       1.054      0.6911      0.3547       0.000    
  48    10.00       9.946       9.875       9.732       9.560       9.411       9.239       9.085       8.871       8.526    
        8.128       7.817       7.587       7.329       7.057       6.817       6.658       6.524       6.435       6.374    
        6.298       6.200       6.100       6.011       5.936       5.867       5.786       5.669       5.524       5.367    
        5.202       4.975       4.625       4.295       4.017       3.769       3.553       3.383       3.178       2.879    
        2.595       2.415       2.274       2.054       1.707       1.350       1.006      0.6960      0.3744       0.000    
  49    10.00       9.943       9.841       9.713       9.573       9.399       9.226       9.053       8.788       8.423    
        8.080       7.790       7.511       7.267       7.058       6.832       6.626       6.505       6.446       6.387    
        6.316       6.205       6.094       6.021       5.959       5.905       5.813       5.672       5.507       5.357    
        5.184       4.907       4.610       4.390       4.134       3.844       3.583       3.377       3.140       2.822    
        2.592       2.435       2.225       1.893       1.585       1.294      0.9947      0.6959      0.3732       0.000    
  50    10.00       9.935       9.829       9.698       9.571       9.409       9.216       9.000       8.721       8.432    
        8.074       7.710       7.452       7.257       7.080       6.826       6.597       6.507       6.455       6.395    
        6.324       6.210       6.096       6.025       5.972       5.922       5.818       5.657       5.490       5.347    
        5.170       4.884       4.655       4.457       4.189       3.901       3.628       3.345       3.023       2.756    
        2.638       2.459       2.135       1.803       1.573       1.292       1.009      0.6815      0.3039       0.000    

 HEAD WILL BE SAVED ON UNIT   51 AT END OF TIME STEP  38, STRESS PERIOD    2

 DRAWDOWN WILL BE SAVED ON UNIT   52 AT END OF TIME STEP  38, STRESS PERIOD    2
1
  VOLUMETRIC BUDGET FOR ENTIRE MODEL AT END OF TIME STEP 38 IN STRESS PERIOD   2
  ------------------------------------------------------------------------------

     CUMULATIVE VOLUMES      L**3       RATES FOR THIS TIME STEP      L**3/T
     ------------------                 ------------------------

           IN:                                      IN:
           ---                                      ---
             STORAGE =       18844.1426               STORAGE =         482.8530
       CONSTANT HEAD =       23430.4902         CONSTANT HEAD =         612.5833
               WELLS =           0.0000                 WELLS =           0.0000

            TOTAL IN =       42274.6328              TOTAL IN =        1095.4363

          OUT:                                     OUT:
          ----                                     ----
             STORAGE =       9.4320E-03               STORAGE =           0.0000
       CONSTANT HEAD =       23274.6191         CONSTANT HEAD =         595.4364
               WELLS =       19000.0000                 WELLS =         500.0000

           TOTAL OUT =       42274.6289             TOTAL OUT =        1095.4364

            IN - OUT =       3.9063E-03              IN - OUT =      -1.2207E-04

 PERCENT DISCREPANCY =           0.00     PERCENT DISCREPANCY =           0.00






          TIME SUMMARY AT END OF TIME STEP  38 IN STRESS PERIOD    2
                    SECONDS     MINUTES      HOURS       DAYS        YEARS
                    -----------------------------------------------------------
   TIME STEP LENGTH  86400.      1440.0      24.000      1.0000     2.73785E-03
 STRESS PERIOD TIME 3.28320E+06  54720.      912.00      38.000     0.10404    
         TOTAL TIME 3.36960E+06  56160.      936.00      39.000     0.10678    
1
 
 SOLVING FOR HEAD 

 OUTPUT CONTROL FOR STRESS PERIOD    2   TIME STEP  39
    SAVE HEAD FOR ALL LAYERS
    SAVE DRAWDOWN FOR ALL LAYERS
    SAVE BUDGET
    PRINT HEAD FOR ALL LAYERS
    PRINT BUDGET
 UBDSV1 SAVING "         STORAGE" ON UNIT  53 AT TIME STEP 39, STRESS PERIOD   2
 UBDSV2 SAVING "   CONSTANT HEAD" ON UNIT  53 AT TIME STEP 39, STRESS PERIOD   2
 UBDSV1 SAVING "FLOW RIGHT FACE " ON UNIT  53 AT TIME STEP 39, STRESS PERIOD   2
 UBDSV1 SAVING "FLOW FRONT FACE " ON UNIT  53 AT TIME STEP 39, STRESS PERIOD   2
1
              HEAD IN LAYER   1 AT END OF TIME STEP  39 IN STRESS PERIOD    2
  ---------------------------------------------------------------------------

            1           2           3           4           5           6           7           8           9          10
           11          12          13          14          15          16          17          18          19          20
           21          22          23          24          25          26          27          28          29          30
           31          32          33          34          35          36          37          38          39          40
           41          42          43          44          45          46          47          48          49          50
 ........................................................................................................................
   1    10.00       9.958       9.899       9.832       9.766       9.691       9.620       9.551       9.463       9.377    
        9.309       9.244       9.176       9.111       9.005       8.877       8.735       8.622       8.564       8.496    
        8.415       8.350       8.287       8.212       8.113       7.918       7.697       7.543       7.391       7.248    
        7.062       6.764       6.383       5.960       5.520       5.053       4.591       4.206       3.703       3.156    
        2.707       2.278       1.802       1.403       1.158      0.9494      0.7844      0.6649      0.4463       0.000    
   2    10.00       9.957       9.904       9.836       9.769       9.703       9.633       9.541       9.445       9.374    
        9.316       9.260       9.203       9.122       9.001       8.867       8.733       8.622       8.562       8.486    
        8.405       8.356       8.305       8.228       8.102       7.911       7.711       7.551       7.398       7.259    
        7.051       6.740       6.340       5.858       5.389       4.937       4.537       4.164       3.653       3.124    
        2.674       2.191       1.757       1.444       1.213       1.034      0.8291      0.6472      0.3611       0.000    
   3    10.00       9.952       9.898       9.838       9.779       9.712       9.622       9.525       9.457       9.394    
        9.329       9.278       9.228       9.149       9.025       8.860       8.714       8.624       8.554       8.477    
        8.411       8.360       8.307       8.204       8.068       7.898       7.724       7.598       7.420       7.239    
        6.978       6.608       6.152       5.685       5.269       4.848       4.455       4.056       3.526       3.036    
        2.649       2.204       1.807       1.520       1.290       1.105      0.8627      0.5784      0.2623       0.000    
   4    10.00       9.952       9.899       9.841       9.774       9.696       9.604       9.530       9.471       9.405    
        9.349       9.306       9.250       9.162       9.041       8.866       8.713       8.629       8.550       8.482    
        8.411       8.347       8.280       8.172       8.037       7.885       7.728       7.574       7.416       7.210    
        6.883       6.395       5.912       5.557       5.210       4.774       4.303       3.834       3.410       3.040    
        2.678       2.265       1.891       1.632       1.374       1.138      0.8382      0.5203      0.2493       0.000    
   5    10.00       9.948       9.895       9.829       9.762       9.690       9.607       9.543       9.482       9.421    
        9.371       9.329       9.257       9.153       9.020       8.860       8.731       8.639       8.561       8.469    
        8.384       8.315       8.233       8.128       8.007       7.852       7.695       7.553       7.394       7.144    
        6.676       6.131       5.744       5.466       5.123       4.651       4.164       3.739       3.421       3.086    
        2.730       2.350       1.979       1.738       1.461       1.120      0.7631      0.4641      0.2334       0.000    
   6    10.00       9.941       9.878       9.823       9.762       9.684       9.613       9.558       9.494       9.437    
        9.390       9.339       9.247       9.131       9.015       8.881       8.750       8.644       8.541       8.435    
        8.349       8.269       8.198       8.103       7.949       7.796       7.670       7.526       7.305       6.928    
        6.412       5.918       5.596       5.355       5.045       4.579       4.094       3.734       3.465       3.162    
        2.837       2.502       2.122       1.799       1.432       1.057      0.6741      0.4006      0.2205       0.000    
   7    10.00       9.930       9.869       9.817       9.754       9.689       9.626       9.574       9.515       9.458    
        9.401       9.324       9.224       9.114       9.004       8.899       8.763       8.618       8.500       8.395    
        8.305       8.228       8.166       8.047       7.890       7.761       7.633       7.440       7.088       6.606    
        6.113       5.713       5.493       5.278       4.918       4.482       4.155       3.806       3.512       3.314    
        3.005       2.646       2.199       1.739       1.328      0.9182      0.5810      0.4036      0.2078       0.000    
   8    10.00       9.929       9.874       9.816       9.752       9.694       9.640       9.587       9.533       9.478    
        9.403       9.305       9.206       9.102       9.000       8.882       8.712       8.560       8.464       8.363    
        8.262       8.196       8.105       7.977       7.841       7.706       7.491       7.192       6.750       6.327    
        5.956       5.645       5.443       5.197       4.813       4.452       4.157       3.900       3.671       3.442    
        3.142       2.690       2.142       1.651       1.223      0.8599      0.6152      0.3954      0.1896       0.000    
   9    10.00       9.940       9.873       9.810       9.763       9.714       9.660       9.604       9.544       9.486    
        9.399       9.288       9.180       9.076       8.968       8.828       8.664       8.524       8.419       8.316    
        8.227       8.141       8.018       7.897       7.771       7.606       7.298       6.896       6.482       6.173    
        5.868       5.608       5.386       5.078       4.722       4.419       4.195       4.004       3.799       3.549    
        3.188       2.696       2.137       1.649       1.232      0.8792      0.6209      0.3990      0.2040       0.000    
  10    10.00       9.938       9.868       9.816       9.772       9.725       9.676       9.628       9.558       9.473    
        9.368       9.252       9.149       9.052       8.940       8.769       8.596       8.475       8.378       8.281    
        8.197       8.079       7.942       7.806       7.660       7.423       7.031       6.613       6.259       6.010    
        5.812       5.591       5.323       5.011       4.677       4.420       4.248       4.082       3.862       3.575    
        3.163       2.653       2.142       1.725       1.334      0.9679      0.6405      0.4239      0.2278       0.000    
  11    10.00       9.925       9.868       9.825       9.782       9.742       9.697       9.630       9.536       9.440    
        9.335       9.221       9.126       9.010       8.858       8.695       8.553       8.444       8.356       8.257    
        8.133       7.983       7.800       7.644       7.403       7.072       6.737       6.427       6.127       5.939    
        5.786       5.508       5.214       4.955       4.697       4.498       4.318       4.107       3.835       3.489    
        3.102       2.708       2.217       1.806       1.435       1.071      0.7198      0.4164      0.1746       0.000    
  12    10.00       9.927       9.875       9.829       9.793       9.751       9.699       9.607       9.497       9.406    
        9.308       9.190       9.075       8.937       8.804       8.654       8.516       8.422       8.325       8.190    
        7.986       7.764       7.548       7.332       7.010       6.759       6.565       6.263       6.013       5.867    
        5.692       5.437       5.190       4.949       4.762       4.572       4.344       4.088       3.759       3.411    
        3.083       2.727       2.254       1.850       1.500       1.119      0.7576      0.3929      0.1304       0.000    
  13    10.00       9.941       9.891       9.843       9.800       9.751       9.669       9.563       9.460       9.367    
        9.257       9.143       9.023       8.880       8.733       8.592       8.492       8.376       8.248       7.987    
        7.680       7.445       7.206       6.919       6.670       6.547       6.330       6.063       5.923       5.788    
        5.581       5.357       5.162       4.979       4.816       4.641       4.370       4.024       3.707       3.380    
        3.067       2.698       2.191       1.816       1.515       1.110      0.6967      0.3394      0.1039       0.000    
  14    10.00       9.955       9.912       9.861       9.802       9.722       9.615       9.509       9.417       9.314    
        9.202       9.095       8.960       8.811       8.681       8.559       8.409       8.260       8.011       7.622    
        7.327       7.098       6.781       6.554       6.434       6.321       6.107       5.940       5.806       5.668    
        5.486       5.320       5.180       5.018       4.843       4.668       4.364       3.988       3.661       3.325    
        3.004       2.547       2.064       1.769       1.428       1.064      0.6980      0.3145      8.9553E-02   0.000    
  15    10.00       9.964       9.920       9.863       9.792       9.676       9.547       9.454       9.368       9.267    
        9.179       9.069       8.898       8.728       8.609       8.423       8.233       8.076       7.696       7.271    
        7.002       6.697       6.427       6.338       6.272       6.132       5.949       5.793       5.688       5.579    
        5.437       5.314       5.196       5.054       4.881       4.669       4.317       3.902       3.559       3.252    
        2.909       2.448       2.068       1.700       1.294      0.9738      0.6240      0.2884      9.7584E-02   0.000    
  16    10.00       9.970       9.923       9.854       9.750       9.612       9.497       9.423       9.347       9.246    
        9.141       8.981       8.769       8.605       8.435       8.221       8.093       7.780       7.245       6.869    
        6.630       6.366       6.266       6.212       6.095       5.916       5.773       5.691       5.635       5.540    
        5.419       5.307       5.208       5.066       4.859       4.576       4.177       3.821       3.549       3.225    
        2.827       2.374       1.966       1.566       1.218      0.8628      0.5601      0.2914      0.1040       0.000    
  17    10.00       9.966       9.909       9.818       9.700       9.559       9.457       9.392       9.303       9.196    
        9.011       8.788       8.610       8.443       8.225       8.011       7.746       7.247       6.795       6.557    
        6.367       6.223       6.152       6.032       5.853       5.725       5.680       5.650       5.594       5.496    
        5.390       5.292       5.187       5.048       4.757       4.389       4.081       3.847       3.585       3.195    
        2.692       2.250       1.871       1.496       1.092      0.7200      0.4776      0.2648      0.1103       0.000    
  18    10.00       9.952       9.879       9.774       9.620       9.501       9.430       9.334       9.226       9.068    
        8.834       8.648       8.481       8.228       7.944       7.648       7.274       6.835       6.556       6.371    
        6.225       6.099       5.985       5.825       5.699       5.657       5.637       5.609       5.542       5.448    
        5.358       5.259       5.128       4.914       4.617       4.319       4.077       3.886       3.557       3.080    
        2.597       2.134       1.753       1.401       1.014      0.6644      0.4038      0.2213      0.1033       0.000    
  19    10.00       9.936       9.852       9.699       9.547       9.477       9.387       9.265       9.134       8.955    
        8.746       8.563       8.297       7.937       7.638       7.345       6.942       6.580       6.401       6.280    
        6.126       5.968       5.839       5.703       5.634       5.612       5.587       5.541       5.465       5.387    
        5.300       5.193       5.022       4.803       4.559       4.307       4.099       3.855       3.391       2.922    
        2.540       2.068       1.655       1.312      0.9318      0.5989      0.3635      0.2101      0.1052       0.000    
  20    10.00       9.918       9.790       9.630       9.519       9.439       9.341       9.210       9.054       8.888    
        8.671       8.398       8.036       7.704       7.439       7.086       6.717       6.530       6.378       6.213    
        6.047       5.881       5.724       5.623       5.576       5.538       5.486       5.438       5.368       5.298    
        5.217       5.110       4.941       4.746       4.528       4.312       4.092       3.715       3.228       2.830    
        2.407       1.949       1.584       1.241      0.8862      0.5382      0.3157      0.2119      0.1070       0.000    
  21    10.00       9.870       9.739       9.609       9.492       9.403       9.295       9.129       8.971       8.810    
        8.528       8.183       7.842       7.568       7.281       6.942       6.677       6.514       6.340       6.160    
        5.957       5.769       5.630       5.527       5.450       5.382       5.341       5.299       5.228       5.176    
        5.117       5.008       4.864       4.695       4.500       4.293       3.983       3.602       3.179       2.706    
        2.281       1.851       1.535       1.220      0.7699      0.4542      0.3233      0.2359      0.1133       0.000    
  22    10.00       9.851       9.697       9.570       9.471       9.365       9.207       9.041       8.901       8.687    
        8.389       8.029       7.733       7.504       7.189       6.876       6.651       6.483       6.311       6.094    
        5.860       5.670       5.492       5.333       5.230       5.182       5.150       5.097       5.072       5.042    
        4.996       4.910       4.800       4.645       4.462       4.262       3.938       3.555       3.058       2.591    
        2.223       1.834       1.483       1.016      0.6330      0.4550      0.3419      0.2273      9.0221E-02   0.000    
  23    10.00       9.818       9.667       9.563       9.455       9.297       9.118       8.988       8.810       8.587    
        8.283       7.961       7.733       7.444       7.104       6.831       6.641       6.487       6.292       6.032    
        5.783       5.559       5.324       5.043       4.794       4.748       4.822       4.858       4.903       4.914    
        4.891       4.830       4.733       4.607       4.432       4.221       3.919       3.441       2.917       2.532    
        2.180       1.736       1.233      0.8286      0.6167      0.4664      0.3410      0.2162      0.1006       0.000    
  24    10.00       9.793       9.684       9.564       9.411       9.237       9.096       8.955       8.780       8.522    
        8.241       7.991       7.740       7.392       7.033       6.816       6.660       6.500       6.265       6.003    
        5.756       5.499       5.139       4.495       3.524       3.856       4.304       4.585       4.731       4.787    
        4.795       4.753       4.682       4.553       4.384       4.170       3.795       3.289       2.843       2.434    
        2.005       1.537       1.091      0.7893      0.6129      0.4632      0.3327      0.2520      0.1387       0.000    
  25    10.00       9.819       9.705       9.559       9.399       9.244       9.099       8.964       8.750       8.493    
        8.258       8.017       7.709       7.327       7.049       6.851       6.678       6.490       6.271       6.029    
        5.762       5.507       4.852       3.478      0.3527       2.896       3.859       4.339       4.590       4.699    
        4.722       4.698       4.624       4.474       4.294       4.035       3.645       3.160       2.756       2.313    
        1.819       1.377       1.014      0.7799      0.6368      0.4976      0.3635      0.2678      0.1748       0.000    
  26    10.00       9.846       9.737       9.581       9.416       9.279       9.130       8.959       8.740       8.540    
        8.337       8.017       7.629       7.304       7.101       6.924       6.717       6.474       6.242       6.034    
        5.830       5.550       4.948       3.954       2.907       3.427       3.986       4.335       4.547       4.660    
        4.678       4.650       4.557       4.409       4.235       3.953       3.443       2.995       2.655       2.115    
        1.579       1.215       1.002      0.8453      0.6934      0.5392      0.3997      0.2927      0.1748       0.000    
  27    10.00       9.880       9.748       9.615       9.467       9.309       9.160       8.995       8.799       8.609    
        8.337       7.960       7.623       7.359       7.181       6.982       6.712       6.444       6.256       6.091    
        5.921       5.634       5.184       4.639       4.060       4.084       4.282       4.464       4.597       4.657    
        4.656       4.618       4.527       4.376       4.142       3.700       3.218       2.868       2.346       1.817    
        1.435       1.198       1.043      0.9107      0.7707      0.5930      0.4268      0.3195      0.2147       0.000    
  28    10.00       9.890       9.779       9.652       9.518       9.368       9.214       9.048       8.864       8.643    
        8.310       7.968       7.677       7.424       7.239       7.039       6.808       6.547       6.299       6.136    
        5.984       5.780       5.482       5.078       4.715       4.553       4.566       4.647       4.676       4.684    
        4.654       4.598       4.487       4.276       3.928       3.467       3.059       2.581       2.067       1.718    
        1.440       1.246       1.093      0.9616      0.8178      0.6477      0.4834      0.3632      0.2214       0.000    
  29    10.00       9.895       9.790       9.694       9.565       9.429       9.281       9.114       8.919       8.623    
        8.296       7.996       7.720       7.512       7.300       7.083       6.873       6.665       6.427       6.218    
        6.056       5.884       5.681       5.434       5.106       4.928       4.860       4.827       4.800       4.736    
        4.657       4.545       4.404       4.114       3.700       3.287       2.865       2.385       1.995       1.743    
        1.517       1.303       1.136       1.008      0.8676      0.6933      0.5240      0.3835      0.2236       0.000    
  30    10.00       9.905       9.817       9.733       9.621       9.495       9.363       9.179       8.934       8.634    
        8.297       7.992       7.761       7.555       7.346       7.137       6.961       6.784       6.571       6.348    
        6.156       5.999       5.823       5.646       5.434       5.239       5.156       5.028       4.936       4.799    
        4.638       4.451       4.247       3.938       3.604       3.215       2.781       2.342       2.058       1.827    
        1.572       1.361       1.201       1.048      0.8899      0.7356      0.5582      0.3996      0.2414       0.000    
  31    10.00       9.921       9.845       9.766       9.685       9.586       9.442       9.224       8.941       8.629    
        8.304       8.021       7.802       7.590       7.405       7.212       7.029       6.894       6.689       6.476    
        6.293       6.129       5.974       5.807       5.665       5.510       5.359       5.209       5.033       4.834    
        4.589       4.348       4.136       3.893       3.561       3.157       2.745       2.385       2.157       1.949    
        1.684       1.442       1.254       1.092      0.9352      0.7718      0.5939      0.4268      0.2348       0.000    
  32    10.00       9.933       9.875       9.806       9.727       9.637       9.494       9.247       8.982       8.698    
        8.355       8.061       7.843       7.645       7.457       7.294       7.134       6.964       6.798       6.597    
        6.403       6.225       6.069       5.910       5.781       5.674       5.506       5.315       5.073       4.804    
        4.548       4.318       4.098       3.865       3.549       3.186       2.840       2.526       2.282       2.047    
        1.800       1.547       1.347       1.158      0.9780      0.8302      0.6481      0.4270      0.2120       0.000    
  33    10.00       9.942       9.895       9.839       9.762       9.660       9.478       9.238       9.017       8.753    
        8.420       8.130       7.904       7.688       7.512       7.374       7.233       7.065       6.882       6.694    
        6.492       6.302       6.117       5.964       5.862       5.755       5.569       5.320       5.067       4.817    
        4.570       4.362       4.142       3.852       3.554       3.226       2.931       2.677       2.422       2.166    
        1.935       1.695       1.475       1.276       1.076      0.9011      0.6964      0.4358      0.2052       0.000    
  34    10.00       9.948       9.916       9.867       9.772       9.631       9.455       9.278       9.051       8.765    
        8.471       8.188       7.946       7.729       7.574       7.465       7.316       7.146       6.944       6.765    
        6.579       6.354       6.170       6.030       5.924       5.784       5.563       5.342       5.085       4.811    
        4.602       4.423       4.220       3.933       3.629       3.330       3.058       2.829       2.567       2.309    
        2.088       1.867       1.634       1.430       1.219       1.012      0.7521      0.4830      0.2547       0.000    
  35    10.00       9.957       9.920       9.859       9.740       9.591       9.462       9.311       9.102       8.794    
        8.482       8.218       7.974       7.788       7.657       7.536       7.379       7.190       6.994       6.794    
        6.609       6.406       6.218       6.085       5.969       5.832       5.602       5.336       5.062       4.803    
        4.648       4.475       4.257       4.038       3.778       3.461       3.186       3.001       2.735       2.446    
        2.239       2.017       1.795       1.595       1.359       1.129      0.8667      0.5784      0.2890       0.000    
  36    10.00       9.954       9.902       9.832       9.715       9.572       9.457       9.315       9.105       8.817    
        8.490       8.204       8.020       7.875       7.751       7.600       7.411       7.225       7.013       6.758    
        6.561       6.398       6.238       6.122       6.011       5.845       5.596       5.321       5.041       4.810    
        4.661       4.513       4.312       4.105       3.883       3.594       3.320       3.116       2.883       2.573    
        2.339       2.116       1.889       1.724       1.496       1.241      0.9795      0.6785      0.3451       0.000    
  37    10.00       9.940       9.882       9.806       9.687       9.557       9.426       9.289       9.095       8.784    
        8.453       8.218       8.105       7.966       7.803       7.650       7.432       7.203       6.936       6.677    
        6.532       6.402       6.251       6.129       5.997       5.795       5.563       5.273       5.028       4.858    
        4.708       4.545       4.340       4.159       3.927       3.652       3.435       3.238       2.978       2.669    
        2.390       2.172       1.991       1.807       1.591       1.354       1.103      0.7657      0.4149       0.000    
  38    10.00       9.933       9.858       9.776       9.666       9.538       9.393       9.249       9.042       8.754    
        8.500       8.312       8.169       8.041       7.857       7.619       7.368       7.086       6.796       6.633    
        6.521       6.361       6.213       6.109       5.963       5.749       5.468       5.209       5.069       4.932    
        4.765       4.582       4.384       4.200       3.973       3.720       3.526       3.325       3.016       2.693    
        2.450       2.248       2.065       1.881       1.688       1.460       1.201      0.8761      0.4545       0.000    
  39    10.00       9.914       9.838       9.757       9.648       9.505       9.348       9.196       9.006       8.773    
        8.575       8.434       8.273       8.089       7.814       7.502       7.188       6.885       6.711       6.610    
        6.453       6.280       6.173       6.076       5.936       5.689       5.414       5.248       5.123       4.980    
        4.800       4.625       4.426       4.228       4.035       3.826       3.602       3.367       3.050       2.731    
        2.477       2.274       2.132       1.985       1.776       1.542       1.281      0.9282      0.4545       0.000    
  40    10.00       9.899       9.825       9.743       9.633       9.483       9.321       9.166       9.006       8.812    
        8.647       8.525       8.321       8.022       7.668       7.317       7.000       6.796       6.684       6.558    
        6.383       6.235       6.141       6.021       5.858       5.657       5.477       5.311       5.164       5.028    
        4.862       4.667       4.464       4.278       4.100       3.888       3.647       3.412       3.066       2.718    
        2.489       2.320       2.172       2.046       1.834       1.574       1.334      0.9644      0.4761       0.000    
  41    10.00       9.907       9.819       9.729       9.606       9.469       9.327       9.189       9.034       8.860    
        8.704       8.553       8.271       7.887       7.496       7.179       6.933       6.761       6.645       6.500    
        6.322       6.197       6.090       5.962       5.820       5.677       5.545       5.386       5.210       5.053    
        4.903       4.717       4.512       4.343       4.157       3.950       3.703       3.375       2.993       2.725    
        2.539       2.364       2.227       2.068       1.845       1.587       1.375       1.023      0.5241       0.000    
  42    10.00       9.909       9.812       9.728       9.621       9.493       9.351       9.197       9.058       8.923    
        8.734       8.458       8.102       7.705       7.355       7.112       6.900       6.739       6.603       6.430    
        6.266       6.150       6.040       5.949       5.830       5.726       5.603       5.420       5.232       5.092    
        4.960       4.759       4.539       4.380       4.221       3.989       3.672       3.279       2.940       2.736    
        2.587       2.438       2.269       2.063       1.832       1.624       1.410       1.066      0.5484       0.000    
  43    10.00       9.910       9.820       9.735       9.649       9.535       9.393       9.240       9.088       8.893    
        8.617       8.299       7.935       7.554       7.284       7.081       6.881       6.713       6.548       6.375    
        6.224       6.115       6.035       5.965       5.861       5.747       5.627       5.448       5.280       5.166    
        4.999       4.778       4.571       4.414       4.231       3.947       3.575       3.196       2.960       2.800    
        2.642       2.481       2.275       2.052       1.841       1.640       1.448       1.062      0.4786       0.000    
  44    10.00       9.904       9.822       9.748       9.654       9.566       9.445       9.257       9.051       8.779    
        8.499       8.164       7.767       7.490       7.282       7.059       6.840       6.647       6.468       6.315    
        6.207       6.121       6.047       5.974       5.884       5.769       5.628       5.487       5.357       5.213    
        5.052       4.852       4.619       4.397       4.182       3.892       3.504       3.177       2.989       2.833    
        2.682       2.504       2.297       2.099       1.878       1.655       1.405      0.9097      0.4020       0.000    
  45    10.00       9.904       9.837       9.751       9.662       9.583       9.405       9.191       8.946       8.679    
        8.443       8.042       7.673       7.467       7.254       7.009       6.762       6.565       6.408       6.299    
        6.222       6.146       6.068       5.982       5.885       5.780       5.661       5.542       5.435       5.288    
        5.095       4.882       4.645       4.377       4.133       3.818       3.454       3.197       3.041       2.885    
        2.689       2.484       2.303       2.123       1.930       1.691       1.266      0.7625      0.3862       0.000    
  46    10.00       9.921       9.848       9.757       9.659       9.510       9.322       9.144       8.921       8.659    
        8.320       7.951       7.655       7.397       7.179       6.937       6.690       6.537       6.419       6.319    
        6.249       6.179       6.086       5.983       5.888       5.794       5.697       5.591       5.484       5.349    
        5.169       4.946       4.684       4.381       4.041       3.703       3.438       3.262       3.089       2.910    
        2.684       2.470       2.290       2.146       1.938       1.605       1.135      0.7182      0.3649       0.000    
  47    10.00       9.938       9.871       9.776       9.606       9.426       9.265       9.112       8.912       8.585    
        8.219       7.876       7.592       7.375       7.142       6.874       6.662       6.525       6.432       6.350    
        6.274       6.192       6.101       5.999       5.905       5.824       5.739       5.633       5.510       5.376    
        5.217       5.019       4.680       4.279       3.960       3.711       3.480       3.330       3.171       2.921    
        2.652       2.428       2.260       2.142       1.883       1.484       1.054      0.6911      0.3547       0.000    
  48    10.00       9.946       9.875       9.731       9.560       9.410       9.239       9.085       8.871       8.526    
        8.127       7.817       7.586       7.328       7.056       6.817       6.657       6.523       6.434       6.373    
        6.297       6.199       6.098       6.010       5.935       5.866       5.785       5.668       5.523       5.366    
        5.202       4.975       4.624       4.295       4.016       3.769       3.553       3.382       3.177       2.879    
        2.595       2.414       2.274       2.054       1.707       1.350       1.006      0.6959      0.3744       0.000    
  49    10.00       9.943       9.841       9.713       9.572       9.399       9.226       9.053       8.788       8.423    
        8.079       7.789       7.511       7.266       7.057       6.831       6.625       6.504       6.445       6.386    
        6.315       6.204       6.093       6.020       5.957       5.903       5.812       5.671       5.506       5.356    
        5.184       4.907       4.610       4.390       4.134       3.844       3.583       3.376       3.140       2.822    
        2.592       2.435       2.225       1.893       1.585       1.294      0.9947      0.6958      0.3732       0.000    
  50    10.00       9.935       9.829       9.698       9.571       9.409       9.216       8.999       8.720       8.432    
        8.073       7.709       7.451       7.256       7.080       6.825       6.596       6.506       6.454       6.394    
        6.323       6.209       6.095       6.024       5.971       5.921       5.817       5.656       5.489       5.346    
        5.169       4.884       4.654       4.456       4.189       3.901       3.627       3.345       3.023       2.756    
        2.637       2.459       2.135       1.803       1.573       1.292       1.009      0.6815      0.3039       0.000    

 HEAD WILL BE SAVED ON UNIT   51 AT END OF TIME STEP  39, STRESS PERIOD    2

 DRAWDOWN WILL BE SAVED ON UNIT   52 AT END OF TIME STEP  39, STRESS PERIOD    2
1
  VOLUMETRIC BUDGET FOR ENTIRE MODEL AT END OF TIME STEP 39 IN STRESS PERIOD   2
  ------------------------------------------------------------------------------

     CUMULATIVE VOLUMES      L**3       RATES FOR THIS TIME STEP      L**3/T
     ------------------                 ------------------------

           IN:                                      IN:
           ---                                      ---
             STORAGE =       19325.6191               STORAGE =         481.4756
       CONSTANT HEAD =       24044.2598         CONSTANT HEAD =         613.7687
               WELLS =           0.0000                 WELLS =           0.0000

            TOTAL IN =       43369.8789              TOTAL IN =        1095.2443

          OUT:                                     OUT:
          ----                                     ----
             STORAGE =       9.4320E-03               STORAGE =           0.0000
       CONSTANT HEAD =       23869.8633         CONSTANT HEAD =         595.2443
               WELLS =       19500.0000                 WELLS =         500.0000

           TOTAL OUT =       43369.8711             TOTAL OUT =        1095.2443

            IN - OUT =       7.8125E-03              IN - OUT =           0.0000

 PERCENT DISCREPANCY =           0.00     PERCENT DISCREPANCY =           0.00






          TIME SUMMARY AT END OF TIME STEP  39 IN STRESS PERIOD    2
                    SECONDS     MINUTES      HOURS       DAYS        YEARS
                    -----------------------------------------------------------
   TIME STEP LENGTH  86400.      1440.0      24.000      1.0000     2.73785E-03
 STRESS PERIOD TIME 3.36960E+06  56160.      936.00      39.000     0.10678    
         TOTAL TIME 3.45600E+06  57600.      960.00      40.000     0.10951    
1
 
 SOLVING FOR HEAD 

 OUTPUT CONTROL FOR STRESS PERIOD    2   TIME STEP  40
    SAVE HEAD FOR ALL LAYERS
    SAVE DRAWDOWN FOR ALL LAYERS
    SAVE BUDGET
    PRINT HEAD FOR ALL LAYERS
    PRINT BUDGET
 UBDSV1 SAVING "         STORAGE" ON UNIT  53 AT TIME STEP 40, STRESS PERIOD   2
 UBDSV2 SAVING "   CONSTANT HEAD" ON UNIT  53 AT TIME STEP 40, STRESS PERIOD   2
 UBDSV1 SAVING "FLOW RIGHT FACE " ON UNIT  53 AT TIME STEP 40, STRESS PERIOD   2
 UBDSV1 SAVING "FLOW FRONT FACE " ON UNIT  53 AT TIME STEP 40, STRESS PERIOD   2
1
              HEAD IN LAYER   1 AT END OF TIME STEP  40 IN STRESS PERIOD    2
  ---------------------------------------------------------------------------

            1           2           3           4           5           6           7           8           9          10
           11          12          13          14          15          16          17          18          19          20
           21          22          23          24          25          26          27          28          29          30
           31          32          33          34          35          36          37          38          39          40
           41          42          43          44          45          46          47          48          49          50
 ........................................................................................................................
   1    10.00       9.958       9.899       9.831       9.766       9.691       9.620       9.550       9.462       9.375    
        9.308       9.242       9.175       9.109       9.003       8.875       8.732       8.619       8.561       8.493    
        8.412       8.347       8.284       8.209       8.110       7.915       7.694       7.540       7.388       7.246    
        7.060       6.762       6.381       5.958       5.519       5.052       4.590       4.205       3.702       3.155    
        2.706       2.277       1.802       1.403       1.157      0.9491      0.7842      0.6647      0.4462       0.000    
   2    10.00       9.957       9.904       9.835       9.769       9.703       9.632       9.540       9.444       9.373    
        9.315       9.258       9.202       9.120       8.999       8.865       8.731       8.619       8.559       8.483    
        8.402       8.353       8.302       8.224       8.099       7.908       7.708       7.548       7.395       7.256    
        7.049       6.737       6.338       5.856       5.387       4.935       4.535       4.163       3.651       3.123    
        2.673       2.190       1.756       1.444       1.212       1.033      0.8288      0.6470      0.3609       0.000    
   3    10.00       9.952       9.898       9.837       9.779       9.712       9.621       9.524       9.456       9.392    
        9.328       9.276       9.226       9.148       9.023       8.858       8.712       8.622       8.551       8.474    
        8.408       8.357       8.304       8.201       8.064       7.894       7.721       7.595       7.417       7.236    
        6.975       6.606       6.150       5.683       5.267       4.846       4.454       4.055       3.524       3.034    
        2.648       2.203       1.806       1.519       1.290       1.105      0.8624      0.5782      0.2622       0.000    
   4    10.00       9.952       9.899       9.840       9.774       9.696       9.603       9.529       9.470       9.404    
        9.347       9.305       9.249       9.160       9.039       8.863       8.711       8.626       8.548       8.479    
        8.407       8.344       8.277       8.169       8.034       7.882       7.724       7.570       7.413       7.207    
        6.880       6.392       5.909       5.554       5.208       4.772       4.301       3.833       3.409       3.039    
        2.677       2.264       1.890       1.632       1.373       1.137      0.8379      0.5202      0.2492       0.000    
   5    10.00       9.948       9.895       9.829       9.762       9.689       9.606       9.542       9.481       9.420    
        9.370       9.328       9.255       9.151       9.018       8.858       8.728       8.636       8.558       8.466    
        8.380       8.312       8.230       8.124       8.004       7.848       7.692       7.550       7.391       7.141    
        6.673       6.128       5.740       5.462       5.120       4.648       4.161       3.736       3.419       3.084    
        2.729       2.349       1.978       1.737       1.460       1.120      0.7628      0.4639      0.2333       0.000    
   6    10.00       9.941       9.878       9.823       9.762       9.683       9.612       9.557       9.493       9.435    
        9.389       9.338       9.246       9.129       9.012       8.878       8.748       8.641       8.538       8.431    
        8.346       8.266       8.194       8.099       7.945       7.792       7.666       7.522       7.301       6.924    
        6.408       5.914       5.592       5.351       5.041       4.575       4.091       3.731       3.463       3.160    
        2.835       2.500       2.121       1.798       1.431       1.057      0.6739      0.4004      0.2204       0.000    
   7    10.00       9.930       9.868       9.817       9.754       9.688       9.625       9.573       9.514       9.457    
        9.400       9.323       9.222       9.112       9.002       8.896       8.760       8.615       8.497       8.391    
        8.301       8.224       8.162       8.043       7.886       7.757       7.629       7.435       7.083       6.601    
        6.108       5.708       5.488       5.274       4.914       4.478       4.151       3.803       3.509       3.311    
        3.003       2.644       2.198       1.738       1.327      0.9178      0.5807      0.4035      0.2077       0.000    
   8    10.00       9.929       9.874       9.815       9.752       9.694       9.639       9.586       9.532       9.477    
        9.402       9.304       9.204       9.100       8.998       8.880       8.709       8.557       8.460       8.359    
        8.258       8.192       8.100       7.973       7.836       7.701       7.486       7.186       6.744       6.320    
        5.950       5.639       5.437       5.192       4.808       4.448       4.153       3.896       3.668       3.439    
        3.139       2.688       2.141       1.650       1.222      0.8596      0.6149      0.3953      0.1895       0.000    
   9    10.00       9.940       9.873       9.809       9.762       9.714       9.659       9.603       9.543       9.484    
        9.397       9.286       9.178       9.074       8.965       8.825       8.661       8.520       8.415       8.312    
        8.223       8.137       8.013       7.892       7.766       7.600       7.292       6.889       6.475       6.166    
        5.860       5.602       5.380       5.072       4.717       4.414       4.190       3.999       3.795       3.546    
        3.186       2.694       2.136       1.648       1.232      0.8788      0.6206      0.3989      0.2039       0.000    
  10    10.00       9.938       9.867       9.815       9.771       9.725       9.675       9.627       9.557       9.472    
        9.366       9.250       9.147       9.049       8.937       8.766       8.593       8.470       8.374       8.276    
        8.192       8.074       7.937       7.801       7.654       7.416       7.023       6.606       6.251       6.002    
        5.804       5.584       5.316       5.004       4.671       4.415       4.243       4.078       3.858       3.571    
        3.160       2.650       2.140       1.724       1.334      0.9674      0.6402      0.4237      0.2277       0.000    
  11    10.00       9.925       9.867       9.825       9.781       9.741       9.696       9.629       9.534       9.438    
        9.333       9.219       9.124       9.007       8.855       8.691       8.548       8.440       8.351       8.252    
        8.127       7.977       7.793       7.637       7.395       7.064       6.728       6.417       6.118       5.930    
        5.777       5.500       5.206       4.948       4.691       4.492       4.312       4.102       3.831       3.486    
        3.099       2.706       2.216       1.805       1.434       1.070      0.7195      0.4162      0.1745       0.000    
  12    10.00       9.927       9.874       9.829       9.792       9.751       9.699       9.606       9.496       9.404    
        9.306       9.188       9.072       8.934       8.800       8.650       8.512       8.417       8.319       8.184    
        7.979       7.757       7.540       7.323       7.000       6.749       6.554       6.252       6.002       5.857    
        5.682       5.427       5.182       4.941       4.754       4.565       4.338       4.083       3.754       3.408    
        3.080       2.725       2.252       1.849       1.499       1.119      0.7572      0.3927      0.1303       0.000    
  13    10.00       9.941       9.891       9.843       9.800       9.751       9.668       9.562       9.459       9.365    
        9.255       9.140       9.020       8.876       8.729       8.588       8.487       8.371       8.243       7.979    
        7.672       7.436       7.196       6.908       6.658       6.535       6.317       6.051       5.911       5.777    
        5.570       5.347       5.152       4.970       4.808       4.633       4.364       4.018       3.703       3.376    
        3.063       2.696       2.189       1.814       1.514       1.110      0.6963      0.3392      0.1038       0.000    
  14    10.00       9.955       9.912       9.861       9.801       9.721       9.614       9.508       9.415       9.312    
        9.200       9.092       8.956       8.806       8.676       8.553       8.403       8.254       8.003       7.613    
        7.316       7.086       6.768       6.540       6.421       6.308       6.094       5.926       5.793       5.655    
        5.474       5.309       5.169       5.008       4.834       4.659       4.357       3.982       3.657       3.321    
        3.001       2.544       2.062       1.768       1.427       1.063      0.6976      0.3143      8.9506E-02   0.000    
  15    10.00       9.964       9.919       9.863       9.792       9.675       9.546       9.452       9.366       9.265    
        9.176       9.066       8.893       8.723       8.603       8.416       8.226       8.068       7.686       7.259    
        6.989       6.683       6.412       6.323       6.257       6.117       5.934       5.778       5.673       5.565    
        5.424       5.302       5.185       5.043       4.871       4.660       4.309       3.896       3.554       3.248    
        2.906       2.445       2.066       1.698       1.293      0.9731      0.6236      0.2883      9.7527E-02   0.000    
  16    10.00       9.970       9.923       9.853       9.749       9.611       9.496       9.421       9.345       9.243    
        9.137       8.977       8.764       8.599       8.428       8.213       8.084       7.770       7.232       6.855    
        6.615       6.350       6.250       6.196       6.079       5.900       5.757       5.676       5.620       5.525    
        5.406       5.294       5.196       5.055       4.849       4.566       4.169       3.814       3.543       3.220    
        2.824       2.372       1.964       1.565       1.217      0.8622      0.5597      0.2912      0.1040       0.000    
  17    10.00       9.966       9.909       9.817       9.699       9.557       9.455       9.390       9.300       9.193    
        9.007       8.783       8.604       8.436       8.217       8.001       7.735       7.233       6.780       6.541    
        6.350       6.206       6.135       6.015       5.836       5.708       5.663       5.633       5.578       5.481    
        5.376       5.278       5.174       5.036       4.746       4.379       4.073       3.840       3.579       3.190    
        2.689       2.247       1.869       1.495       1.091      0.7195      0.4772      0.2646      0.1102       0.000    
  18    10.00       9.952       9.879       9.773       9.619       9.499       9.428       9.332       9.223       9.064    
        8.829       8.642       8.473       8.219       7.933       7.636       7.260       6.819       6.539       6.354    
        6.208       6.082       5.968       5.807       5.682       5.640       5.620       5.592       5.525       5.433    
        5.343       5.244       5.114       4.901       4.606       4.309       4.068       3.878       3.551       3.075    
        2.593       2.132       1.752       1.400       1.013      0.6639      0.4035      0.2211      0.1032       0.000    
  19    10.00       9.936       9.852       9.698       9.545       9.475       9.385       9.262       9.130       8.950    
        8.740       8.556       8.288       7.926       7.626       7.331       6.926       6.563       6.384       6.263    
        6.108       5.950       5.821       5.685       5.617       5.595       5.570       5.523       5.448       5.370    
        5.284       5.177       5.008       4.790       4.548       4.297       4.090       3.847       3.385       2.918    
        2.536       2.065       1.654       1.311      0.9310      0.5984      0.3632      0.2099      0.1051       0.000    
  20    10.00       9.917       9.789       9.629       9.517       9.437       9.338       9.206       9.050       8.882    
        8.664       8.390       8.026       7.692       7.425       7.071       6.700       6.513       6.361       6.195    
        6.029       5.863       5.706       5.605       5.558       5.520       5.468       5.420       5.350       5.281    
        5.200       5.094       4.926       4.733       4.515       4.301       4.082       3.707       3.222       2.825    
        2.404       1.947       1.582       1.239      0.8854      0.5377      0.3154      0.2118      0.1070       0.000    
  21    10.00       9.869       9.738       9.607       9.490       9.401       9.292       9.125       8.966       8.804    
        8.520       8.173       7.830       7.555       7.266       6.926       6.660       6.496       6.322       6.141    
        5.938       5.750       5.612       5.508       5.431       5.364       5.322       5.281       5.210       5.158    
        5.100       4.992       4.848       4.681       4.488       4.282       3.974       3.594       3.173       2.701    
        2.277       1.849       1.533       1.219      0.7692      0.4539      0.3231      0.2357      0.1132       0.000    
  22    10.00       9.850       9.696       9.569       9.469       9.363       9.203       9.037       8.895       8.681    
        8.381       8.018       7.720       7.490       7.174       6.859       6.634       6.466       6.293       6.076    
        5.842       5.651       5.473       5.314       5.211       5.163       5.131       5.078       5.053       5.023    
        4.977       4.892       4.784       4.630       4.449       4.250       3.928       3.547       3.052       2.587    
        2.220       1.831       1.481       1.015      0.6325      0.4546      0.3417      0.2271      9.0160E-02   0.000    
  23    10.00       9.817       9.666       9.561       9.453       9.294       9.114       8.984       8.805       8.580    
        8.274       7.950       7.720       7.430       7.089       6.814       6.624       6.469       6.274       6.014    
        5.764       5.540       5.305       5.024       4.775       4.728       4.802       4.838       4.883       4.895    
        4.872       4.812       4.716       4.592       4.418       4.209       3.909       3.434       2.912       2.528    
        2.177       1.734       1.232      0.8279      0.6163      0.4661      0.3408      0.2161      0.1006       0.000    
  24    10.00       9.792       9.683       9.562       9.409       9.234       9.092       8.950       8.774       8.514    
        8.232       7.980       7.728       7.378       7.017       6.800       6.643       6.482       6.247       5.985    
        5.737       5.480       5.120       4.475       3.503       3.835       4.283       4.564       4.711       4.768    
        4.776       4.735       4.665       4.537       4.369       4.158       3.785       3.282       2.838       2.431    
        2.003       1.535       1.090      0.7887      0.6124      0.4629      0.3325      0.2519      0.1386       0.000    
  25    10.00       9.819       9.704       9.557       9.397       9.240       9.095       8.959       8.744       8.485    
        8.248       8.006       7.697       7.313       7.033       6.835       6.661       6.472       6.253       6.010    
        5.743       5.487       4.832       3.457      0.3301       2.875       3.838       4.318       4.569       4.679    
        4.703       4.679       4.607       4.458       4.280       4.023       3.636       3.153       2.751       2.310    
        1.816       1.376       1.013      0.7793      0.6364      0.4973      0.3633      0.2676      0.1747       0.000    
  26    10.00       9.845       9.736       9.579       9.413       9.276       9.126       8.954       8.733       8.532    
        8.328       8.007       7.617       7.289       7.085       6.908       6.701       6.456       6.224       6.016    
        5.811       5.531       4.928       3.933       2.885       3.405       3.964       4.314       4.526       4.640    
        4.658       4.631       4.540       4.393       4.221       3.941       3.434       2.989       2.651       2.113    
        1.578       1.214       1.001      0.8447      0.6930      0.5389      0.3994      0.2925      0.1747       0.000    
  27    10.00       9.879       9.747       9.613       9.465       9.306       9.157       8.991       8.793       8.602    
        8.329       7.949       7.611       7.345       7.166       6.967       6.695       6.427       6.238       6.073    
        5.902       5.615       5.165       4.618       4.038       4.062       4.260       4.443       4.576       4.637    
        4.637       4.600       4.510       4.360       4.128       3.690       3.211       2.862       2.342       1.815    
        1.433       1.197       1.043      0.9101      0.7702      0.5927      0.4266      0.3193      0.2146       0.000    
  28    10.00       9.890       9.778       9.650       9.516       9.366       9.211       9.044       8.858       8.637    
        8.302       7.957       7.665       7.410       7.225       7.023       6.792       6.530       6.281       6.118    
        5.966       5.761       5.463       5.058       4.694       4.532       4.544       4.626       4.655       4.664    
        4.635       4.580       4.471       4.261       3.916       3.458       3.053       2.577       2.064       1.716    
        1.439       1.245       1.092      0.9610      0.8173      0.6474      0.4831      0.3630      0.2213       0.000    
  29    10.00       9.895       9.789       9.693       9.564       9.426       9.277       9.110       8.913       8.617    
        8.287       7.986       7.709       7.499       7.286       7.069       6.857       6.648       6.410       6.200    
        6.038       5.865       5.662       5.414       5.085       4.908       4.839       4.807       4.780       4.717    
        4.639       4.529       4.389       4.101       3.691       3.280       2.860       2.381       1.993       1.741    
        1.516       1.302       1.135       1.007      0.8671      0.6929      0.5237      0.3834      0.2234       0.000    
  30    10.00       9.904       9.816       9.732       9.619       9.493       9.361       9.175       8.929       8.627    
        8.288       7.982       7.750       7.543       7.333       7.123       6.946       6.769       6.555       6.331    
        6.139       5.981       5.805       5.627       5.415       5.219       5.136       5.008       4.917       4.782    
        4.622       4.437       4.235       3.929       3.596       3.210       2.777       2.339       2.056       1.826    
        1.570       1.360       1.200       1.047      0.8894      0.7353      0.5579      0.3994      0.2413       0.000    
  31    10.00       9.920       9.844       9.765       9.683       9.584       9.439       9.220       8.937       8.623    
        8.296       8.011       7.791       7.579       7.392       7.198       7.015       6.879       6.673       6.460    
        6.276       6.111       5.956       5.789       5.647       5.492       5.340       5.190       5.015       4.818    
        4.576       4.337       4.127       3.885       3.555       3.153       2.742       2.383       2.155       1.948    
        1.683       1.441       1.253       1.092      0.9347      0.7714      0.5937      0.4266      0.2347       0.000    
  32    10.00       9.933       9.874       9.805       9.726       9.636       9.492       9.244       8.977       8.692    
        8.347       8.052       7.833       7.634       7.445       7.282       7.121       6.951       6.783       6.582    
        6.387       6.209       6.053       5.893       5.765       5.657       5.489       5.299       5.058       4.791    
        4.537       4.309       4.090       3.858       3.543       3.182       2.837       2.524       2.280       2.046    
        1.799       1.546       1.346       1.157      0.9775      0.8299      0.6479      0.4269      0.2119       0.000    
  33    10.00       9.942       9.894       9.839       9.761       9.659       9.476       9.235       9.013       8.748    
        8.414       8.121       7.895       7.678       7.502       7.363       7.221       7.052       6.868       6.680    
        6.477       6.286       6.101       5.948       5.846       5.738       5.554       5.306       5.055       4.807    
        4.561       4.354       4.135       3.846       3.549       3.222       2.928       2.675       2.420       2.164    
        1.934       1.694       1.474       1.275       1.076      0.9008      0.6962      0.4356      0.2052       0.000    
  34    10.00       9.948       9.916       9.867       9.771       9.630       9.453       9.275       9.047       8.760    
        8.465       8.180       7.938       7.720       7.564       7.455       7.305       7.134       6.932       6.752    
        6.565       6.339       6.155       6.015       5.909       5.770       5.550       5.330       5.075       4.802    
        4.595       4.416       4.214       3.929       3.625       3.327       3.055       2.827       2.565       2.308    
        2.087       1.866       1.633       1.430       1.218       1.012      0.7519      0.4830      0.2547       0.000    
  35    10.00       9.957       9.920       9.858       9.740       9.589       9.460       9.309       9.099       8.790    
        8.476       8.212       7.966       7.779       7.648       7.526       7.369       7.179       6.982       6.782    
        6.597       6.394       6.206       6.073       5.957       5.820       5.591       5.327       5.054       4.796    
        4.642       4.469       4.253       4.034       3.775       3.458       3.184       2.999       2.733       2.445    
        2.238       2.017       1.795       1.595       1.358       1.128      0.8666      0.5783      0.2890       0.000    
  36    10.00       9.954       9.902       9.832       9.714       9.571       9.455       9.313       9.102       8.813    
        8.485       8.198       8.014       7.867       7.743       7.592       7.402       7.215       7.003       6.748    
        6.551       6.388       6.228       6.112       6.000       5.835       5.588       5.314       5.035       4.805    
        4.657       4.509       4.309       4.102       3.880       3.592       3.318       3.115       2.882       2.572    
        2.339       2.115       1.889       1.724       1.496       1.241      0.9794      0.6784      0.3450       0.000    
  37    10.00       9.939       9.882       9.806       9.686       9.555       9.425       9.287       9.092       8.781    
        8.448       8.212       8.099       7.960       7.796       7.643       7.424       7.195       6.927       6.669    
        6.523       6.394       6.242       6.120       5.988       5.787       5.557       5.268       5.024       4.854    
        4.704       4.542       4.337       4.156       3.925       3.650       3.434       3.237       2.977       2.669    
        2.390       2.171       1.991       1.807       1.590       1.354       1.103      0.7657      0.4148       0.000    
  38    10.00       9.933       9.857       9.776       9.665       9.537       9.392       9.248       9.040       8.751    
        8.496       8.307       8.163       8.036       7.851       7.612       7.361       7.079       6.789       6.627    
        6.514       6.354       6.206       6.102       5.957       5.743       5.464       5.206       5.066       4.929    
        4.762       4.579       4.382       4.198       3.971       3.719       3.525       3.324       3.015       2.692    
        2.450       2.248       2.065       1.881       1.688       1.460       1.201      0.8760      0.4545       0.000    
  39    10.00       9.914       9.838       9.757       9.648       9.504       9.347       9.194       9.004       8.771    
        8.571       8.430       8.268       8.084       7.809       7.497       7.183       6.880       6.706       6.605    
        6.447       6.275       6.168       6.071       5.932       5.685       5.411       5.245       5.121       4.977    
        4.798       4.623       4.424       4.226       4.034       3.825       3.601       3.367       3.049       2.730    
        2.476       2.274       2.131       1.985       1.776       1.542       1.281      0.9282      0.4545       0.000    
  40    10.00       9.899       9.825       9.743       9.632       9.482       9.320       9.165       9.004       8.809    
        8.645       8.522       8.317       8.018       7.664       7.314       6.997       6.792       6.680       6.554    
        6.379       6.231       6.137       6.017       5.855       5.655       5.475       5.309       5.162       5.026    
        4.860       4.666       4.462       4.277       4.099       3.887       3.646       3.411       3.066       2.718    
        2.488       2.320       2.172       2.045       1.834       1.574       1.334      0.9643      0.4761       0.000    
  41    10.00       9.906       9.819       9.728       9.606       9.468       9.326       9.188       9.033       8.858    
        8.702       8.550       8.268       7.884       7.493       7.176       6.930       6.758       6.642       6.497    
        6.319       6.194       6.087       5.959       5.818       5.675       5.543       5.384       5.208       5.052    
        4.902       4.716       4.511       4.342       4.156       3.949       3.703       3.374       2.992       2.725    
        2.538       2.363       2.226       2.068       1.845       1.587       1.375       1.023      0.5241       0.000    
  42    10.00       9.909       9.812       9.728       9.621       9.492       9.350       9.196       9.056       8.922    
        8.732       8.456       8.100       7.704       7.353       7.110       6.898       6.737       6.600       6.427    
        6.264       6.147       6.038       5.948       5.829       5.724       5.602       5.418       5.230       5.091    
        4.959       4.758       4.538       4.379       4.220       3.988       3.671       3.279       2.939       2.736    
        2.587       2.438       2.269       2.063       1.831       1.624       1.410       1.066      0.5483       0.000    
  43    10.00       9.910       9.820       9.734       9.649       9.535       9.392       9.239       9.087       8.892    
        8.616       8.297       7.934       7.552       7.282       7.080       6.879       6.711       6.546       6.373    
        6.222       6.113       6.033       5.963       5.859       5.746       5.626       5.447       5.278       5.165    
        4.997       4.776       4.570       4.413       4.230       3.946       3.574       3.196       2.960       2.799    
        2.641       2.481       2.275       2.052       1.841       1.640       1.448       1.062      0.4786       0.000    
  44    10.00       9.904       9.822       9.748       9.653       9.566       9.444       9.257       9.050       8.778    
        8.498       8.163       7.766       7.489       7.281       7.057       6.839       6.646       6.466       6.313    
        6.206       6.120       6.045       5.973       5.883       5.768       5.626       5.485       5.355       5.211    
        5.051       4.851       4.618       4.396       4.182       3.892       3.504       3.177       2.988       2.833    
        2.681       2.504       2.297       2.099       1.877       1.655       1.404      0.9097      0.4020       0.000    
  45    10.00       9.904       9.837       9.751       9.662       9.583       9.405       9.190       8.946       8.678    
        8.443       8.041       7.673       7.466       7.253       7.008       6.761       6.563       6.406       6.297    
        6.221       6.145       6.067       5.980       5.884       5.778       5.660       5.541       5.434       5.287    
        5.094       4.881       4.644       4.376       4.133       3.818       3.453       3.196       3.041       2.885    
        2.689       2.484       2.302       2.123       1.930       1.691       1.266      0.7625      0.3862       0.000    
  46    10.00       9.921       9.848       9.757       9.659       9.510       9.322       9.144       8.920       8.658    
        8.319       7.950       7.654       7.396       7.178       6.936       6.689       6.536       6.418       6.318    
        6.248       6.177       6.085       5.981       5.887       5.793       5.696       5.590       5.483       5.348    
        5.168       4.945       4.683       4.380       4.041       3.703       3.437       3.262       3.089       2.910    
        2.684       2.470       2.290       2.145       1.938       1.605       1.135      0.7182      0.3649       0.000    
  47    10.00       9.938       9.871       9.775       9.606       9.425       9.265       9.112       8.912       8.584    
        8.218       7.876       7.591       7.374       7.141       6.873       6.661       6.524       6.431       6.348    
        6.273       6.191       6.099       5.998       5.904       5.823       5.738       5.632       5.509       5.375    
        5.216       5.018       4.679       4.278       3.959       3.710       3.480       3.329       3.171       2.921    
        2.652       2.428       2.260       2.142       1.882       1.484       1.054      0.6910      0.3547       0.000    
  48    10.00       9.946       9.875       9.731       9.559       9.410       9.238       9.084       8.870       8.525    
        8.127       7.816       7.586       7.327       7.056       6.816       6.656       6.522       6.433       6.372    
        6.296       6.198       6.097       6.009       5.934       5.865       5.784       5.667       5.522       5.365    
        5.201       4.974       4.623       4.294       4.016       3.768       3.552       3.382       3.177       2.879    
        2.594       2.414       2.274       2.054       1.707       1.350       1.006      0.6959      0.3744       0.000    
  49    10.00       9.943       9.841       9.713       9.572       9.398       9.226       9.053       8.787       8.422    
        8.079       7.788       7.510       7.265       7.056       6.830       6.624       6.503       6.444       6.385    
        6.314       6.203       6.092       6.018       5.956       5.902       5.811       5.670       5.505       5.355    
        5.183       4.906       4.609       4.389       4.133       3.844       3.582       3.376       3.140       2.821    
        2.592       2.434       2.225       1.893       1.585       1.294      0.9947      0.6958      0.3732       0.000    
  50    10.00       9.935       9.829       9.698       9.571       9.409       9.215       8.999       8.720       8.431    
        8.073       7.709       7.451       7.255       7.079       6.824       6.595       6.505       6.453       6.393    
        6.322       6.208       6.094       6.023       5.970       5.920       5.816       5.655       5.488       5.345    
        5.168       4.883       4.654       4.456       4.188       3.900       3.627       3.345       3.022       2.756    
        2.637       2.458       2.135       1.803       1.573       1.292       1.009      0.6815      0.3038       0.000    

 HEAD WILL BE SAVED ON UNIT   51 AT END OF TIME STEP  40, STRESS PERIOD    2

 DRAWDOWN WILL BE SAVED ON UNIT   52 AT END OF TIME STEP  40, STRESS PERIOD    2
1
  VOLUMETRIC BUDGET FOR ENTIRE MODEL AT END OF TIME STEP 40 IN STRESS PERIOD   2
  ------------------------------------------------------------------------------

     CUMULATIVE VOLUMES      L**3       RATES FOR THIS TIME STEP      L**3/T
     ------------------                 ------------------------

           IN:                                      IN:
           ---                                      ---
             STORAGE =       19805.6719               STORAGE =         480.0519
       CONSTANT HEAD =       24659.2461         CONSTANT HEAD =         614.9872
               WELLS =           0.0000                 WELLS =           0.0000

            TOTAL IN =       44464.9180              TOTAL IN =        1095.0392

          OUT:                                     OUT:
          ----                                     ----
             STORAGE =       9.4320E-03               STORAGE =           0.0000
       CONSTANT HEAD =       24464.9023         CONSTANT HEAD =         595.0391
               WELLS =       20000.0000                 WELLS =         500.0000

           TOTAL OUT =       44464.9102             TOTAL OUT =        1095.0391

            IN - OUT =       7.8125E-03              IN - OUT =       1.2207E-04

 PERCENT DISCREPANCY =           0.00     PERCENT DISCREPANCY =           0.00






          TIME SUMMARY AT END OF TIME STEP  40 IN STRESS PERIOD    2
                    SECONDS     MINUTES      HOURS       DAYS        YEARS
                    -----------------------------------------------------------
   TIME STEP LENGTH  86400.      1440.0      24.000      1.0000     2.73785E-03
 STRESS PERIOD TIME 3.45600E+06  57600.      960.00      40.000     0.10951    
         TOTAL TIME 3.54240E+06  59040.      984.00      41.000     0.11225    
1
 
 SOLVING FOR HEAD 

 OUTPUT CONTROL FOR STRESS PERIOD    2   TIME STEP  41
    SAVE HEAD FOR ALL LAYERS
    SAVE DRAWDOWN FOR ALL LAYERS
    SAVE BUDGET
    PRINT HEAD FOR ALL LAYERS
    PRINT BUDGET
 UBDSV1 SAVING "         STORAGE" ON UNIT  53 AT TIME STEP 41, STRESS PERIOD   2
 UBDSV2 SAVING "   CONSTANT HEAD" ON UNIT  53 AT TIME STEP 41, STRESS PERIOD   2
 UBDSV1 SAVING "FLOW RIGHT FACE " ON UNIT  53 AT TIME STEP 41, STRESS PERIOD   2
 UBDSV1 SAVING "FLOW FRONT FACE " ON UNIT  53 AT TIME STEP 41, STRESS PERIOD   2
1
              HEAD IN LAYER   1 AT END OF TIME STEP  41 IN STRESS PERIOD    2
  ---------------------------------------------------------------------------

            1           2           3           4           5           6           7           8           9          10
           11          12          13          14          15          16          17          18          19          20
           21          22          23          24          25          26          27          28          29          30
           31          32          33          34          35          36          37          38          39          40
           41          42          43          44          45          46          47          48          49          50
 ........................................................................................................................
   1    10.00       9.958       9.899       9.831       9.765       9.690       9.619       9.549       9.461       9.374    
        9.307       9.241       9.173       9.107       9.001       8.873       8.730       8.617       8.558       8.490    
        8.409       8.344       8.280       8.206       8.107       7.912       7.691       7.537       7.385       7.243    
        7.057       6.759       6.379       5.955       5.517       5.050       4.588       4.203       3.701       3.154    
        2.706       2.277       1.801       1.403       1.157      0.9488      0.7839      0.6645      0.4460       0.000    
   2    10.00       9.957       9.903       9.835       9.768       9.702       9.632       9.539       9.442       9.371    
        9.313       9.257       9.200       9.119       8.997       8.862       8.728       8.616       8.557       8.481    
        8.399       8.350       8.299       8.221       8.096       7.905       7.705       7.545       7.392       7.253    
        7.046       6.735       6.335       5.853       5.385       4.934       4.533       4.162       3.650       3.122    
        2.672       2.190       1.756       1.443       1.212       1.033      0.8286      0.6468      0.3608       0.000    
   3    10.00       9.952       9.898       9.837       9.778       9.711       9.620       9.523       9.455       9.391    
        9.326       9.275       9.225       9.146       9.021       8.856       8.709       8.619       8.548       8.471    
        8.405       8.354       8.301       8.197       8.061       7.891       7.717       7.592       7.414       7.233    
        6.972       6.603       6.147       5.681       5.265       4.844       4.452       4.053       3.523       3.033    
        2.647       2.203       1.805       1.519       1.289       1.104      0.8621      0.5780      0.2621       0.000    
   4    10.00       9.952       9.899       9.840       9.773       9.695       9.602       9.528       9.469       9.403    
        9.346       9.303       9.247       9.158       9.037       8.861       8.708       8.623       8.545       8.476    
        8.404       8.341       8.273       8.165       8.031       7.879       7.721       7.567       7.409       7.204    
        6.877       6.389       5.906       5.551       5.205       4.770       4.299       3.831       3.407       3.037    
        2.676       2.263       1.890       1.631       1.373       1.137      0.8376      0.5200      0.2491       0.000    
   5    10.00       9.948       9.895       9.828       9.761       9.689       9.605       9.541       9.480       9.418    
        9.369       9.327       9.254       9.149       9.016       8.855       8.726       8.633       8.555       8.462    
        8.377       8.309       8.226       8.121       8.000       7.845       7.688       7.546       7.387       7.137    
        6.669       6.124       5.737       5.459       5.116       4.646       4.159       3.734       3.417       3.082    
        2.727       2.348       1.977       1.736       1.460       1.119      0.7625      0.4637      0.2332       0.000    
   6    10.00       9.941       9.878       9.822       9.761       9.682       9.611       9.556       9.492       9.434    
        9.387       9.336       9.244       9.127       9.010       8.876       8.745       8.638       8.535       8.428    
        8.342       8.262       8.190       8.095       7.941       7.788       7.662       7.518       7.297       6.920    
        6.404       5.910       5.587       5.347       5.037       4.572       4.088       3.729       3.461       3.158    
        2.833       2.499       2.120       1.797       1.431       1.056      0.6736      0.4003      0.2204       0.000    
   7    10.00       9.929       9.868       9.817       9.753       9.687       9.624       9.572       9.513       9.456    
        9.398       9.321       9.220       9.110       8.999       8.894       8.757       8.612       8.493       8.388    
        8.298       8.220       8.158       8.039       7.882       7.752       7.624       7.431       7.079       6.596    
        6.103       5.703       5.483       5.269       4.909       4.474       4.148       3.800       3.507       3.309    
        3.001       2.643       2.197       1.737       1.327      0.9174      0.5805      0.4033      0.2076       0.000    
   8    10.00       9.929       9.874       9.815       9.751       9.693       9.638       9.585       9.531       9.476    
        9.400       9.302       9.202       9.098       8.996       8.877       8.706       8.553       8.457       8.355    
        8.254       8.188       8.096       7.968       7.831       7.696       7.481       7.181       6.738       6.314    
        5.944       5.634       5.432       5.186       4.803       4.443       4.149       3.892       3.664       3.436    
        3.137       2.686       2.139       1.649       1.222      0.8592      0.6146      0.3951      0.1894       0.000    
   9    10.00       9.940       9.873       9.809       9.762       9.713       9.658       9.602       9.542       9.483    
        9.396       9.284       9.176       9.072       8.962       8.823       8.657       8.516       8.411       8.308    
        8.218       8.132       8.008       7.887       7.760       7.594       7.286       6.883       6.468       6.158    
        5.853       5.595       5.373       5.067       4.711       4.409       4.185       3.995       3.792       3.542    
        3.183       2.692       2.134       1.647       1.231      0.8784      0.6203      0.3987      0.2039       0.000    
  10    10.00       9.938       9.867       9.815       9.771       9.724       9.674       9.626       9.556       9.470    
        9.364       9.248       9.144       9.047       8.934       8.763       8.589       8.466       8.369       8.272    
        8.187       8.069       7.931       7.795       7.648       7.410       7.016       6.598       6.243       5.994    
        5.796       5.576       5.309       4.997       4.665       4.409       4.238       4.073       3.854       3.568    
        3.157       2.648       2.139       1.723       1.333      0.9670      0.6399      0.4235      0.2276       0.000    
  11    10.00       9.925       9.867       9.824       9.781       9.741       9.695       9.628       9.533       9.437    
        9.331       9.217       9.122       9.004       8.851       8.688       8.544       8.435       8.346       8.247    
        8.122       7.972       7.787       7.631       7.387       7.055       6.719       6.408       6.109       5.921    
        5.768       5.491       5.198       4.940       4.684       4.486       4.307       4.097       3.827       3.482    
        3.096       2.703       2.214       1.804       1.433       1.070      0.7191      0.4160      0.1744       0.000    
  12    10.00       9.927       9.874       9.828       9.792       9.750       9.698       9.604       9.495       9.403    
        9.304       9.186       9.069       8.931       8.796       8.646       8.507       8.412       8.314       8.178    
        7.973       7.750       7.532       7.314       6.990       6.738       6.544       6.242       5.992       5.847    
        5.673       5.418       5.173       4.933       4.747       4.559       4.332       4.078       3.750       3.404    
        3.077       2.722       2.250       1.847       1.498       1.118      0.7569      0.3925      0.1302       0.000    
  13    10.00       9.941       9.891       9.843       9.799       9.750       9.667       9.560       9.457       9.363    
        9.253       9.137       9.017       8.873       8.725       8.583       8.482       8.365       8.237       7.972    
        7.664       7.427       7.186       6.897       6.647       6.523       6.305       6.039       5.899       5.765    
        5.559       5.336       5.142       4.961       4.800       4.626       4.357       4.013       3.698       3.372    
        3.060       2.693       2.187       1.813       1.513       1.109      0.6960      0.3391      0.1038       0.000    
  14    10.00       9.954       9.911       9.861       9.801       9.720       9.613       9.506       9.413       9.310    
        9.197       9.089       8.953       8.802       8.672       8.548       8.397       8.247       7.995       7.603    
        7.305       7.075       6.755       6.527       6.407       6.294       6.080       5.913       5.780       5.642    
        5.462       5.298       5.158       4.999       4.825       4.651       4.350       3.976       3.652       3.317    
        2.998       2.542       2.061       1.766       1.426       1.063      0.6972      0.3141      8.9456E-02   0.000    
  15    10.00       9.964       9.919       9.863       9.791       9.674       9.545       9.451       9.364       9.262    
        9.173       9.063       8.889       8.718       8.598       8.410       8.219       8.061       7.677       7.247    
        6.976       6.670       6.397       6.309       6.243       6.103       5.920       5.763       5.659       5.551    
        5.411       5.290       5.173       5.033       4.862       4.651       4.302       3.890       3.549       3.243    
        2.902       2.443       2.064       1.697       1.292      0.9725      0.6232      0.2881      9.7467E-02   0.000    
  16    10.00       9.970       9.922       9.853       9.748       9.610       9.494       9.419       9.343       9.241    
        9.134       8.973       8.758       8.593       8.422       8.205       8.076       7.760       7.219       6.841    
        6.600       6.335       6.234       6.181       6.064       5.884       5.741       5.660       5.605       5.511    
        5.392       5.281       5.183       5.043       4.838       4.557       4.162       3.807       3.538       3.216    
        2.820       2.369       1.962       1.563       1.216      0.8615      0.5593      0.2911      0.1039       0.000    
  17    10.00       9.966       9.909       9.817       9.698       9.556       9.453       9.388       9.298       9.190    
        9.003       8.778       8.597       8.429       8.208       7.992       7.724       7.220       6.764       6.525    
        6.334       6.189       6.119       5.999       5.819       5.691       5.647       5.617       5.562       5.466    
        5.362       5.264       5.162       5.024       4.735       4.370       4.064       3.833       3.572       3.185    
        2.685       2.244       1.867       1.493       1.090      0.7189      0.4769      0.2644      0.1101       0.000    
  18    10.00       9.952       9.879       9.772       9.618       9.498       9.426       9.329       9.220       9.060    
        8.823       8.635       8.466       8.211       7.923       7.624       7.247       6.804       6.523       6.337    
        6.191       6.065       5.951       5.790       5.665       5.623       5.603       5.575       5.509       5.417    
        5.328       5.230       5.101       4.889       4.595       4.300       4.060       3.870       3.544       3.070    
        2.590       2.129       1.750       1.399       1.012      0.6633      0.4032      0.2210      0.1031       0.000    
  19    10.00       9.936       9.851       9.697       9.543       9.473       9.383       9.259       9.127       8.945    
        8.734       8.549       8.279       7.915       7.613       7.317       6.910       6.547       6.367       6.245    
        6.091       5.932       5.804       5.668       5.599       5.577       5.553       5.506       5.431       5.354    
        5.269       5.162       4.994       4.777       4.536       4.287       4.081       3.839       3.379       2.913    
        2.532       2.063       1.652       1.310      0.9301      0.5979      0.3629      0.2097      0.1050       0.000    
  20    10.00       9.917       9.788       9.628       9.515       9.435       9.335       9.203       9.046       8.877    
        8.658       8.382       8.015       7.680       7.411       7.056       6.683       6.496       6.343       6.178    
        6.011       5.845       5.688       5.587       5.540       5.502       5.450       5.403       5.332       5.264    
        5.184       5.079       4.911       4.719       4.503       4.290       4.073       3.699       3.216       2.820    
        2.400       1.944       1.580       1.238      0.8845      0.5373      0.3152      0.2116      0.1069       0.000    
  21    10.00       9.869       9.737       9.606       9.488       9.398       9.289       9.121       8.961       8.798    
        8.513       8.164       7.819       7.541       7.252       6.910       6.643       6.479       6.304       6.124    
        5.920       5.732       5.594       5.490       5.413       5.346       5.304       5.263       5.192       5.140    
        5.082       4.975       4.832       4.667       4.475       4.270       3.964       3.586       3.167       2.697    
        2.274       1.846       1.531       1.218      0.7685      0.4535      0.3228      0.2355      0.1132       0.000    
  22    10.00       9.850       9.695       9.567       9.467       9.360       9.200       9.032       8.890       8.674    
        8.372       8.007       7.708       7.477       7.159       6.843       6.617       6.448       6.275       6.058    
        5.823       5.633       5.454       5.296       5.193       5.144       5.113       5.059       5.035       5.004    
        4.960       4.875       4.768       4.615       4.435       4.238       3.918       3.539       3.046       2.583    
        2.217       1.829       1.479       1.014      0.6320      0.4543      0.3414      0.2270      9.0096E-02   0.000    
  23    10.00       9.817       9.665       9.559       9.451       9.291       9.110       8.979       8.799       8.573    
        8.265       7.939       7.708       7.416       7.074       6.798       6.607       6.452       6.256       5.996    
        5.746       5.521       5.286       5.005       4.755       4.709       4.783       4.819       4.864       4.876    
        4.854       4.794       4.700       4.576       4.405       4.197       3.898       3.426       2.906       2.524    
        2.174       1.732       1.230      0.8272      0.6158      0.4657      0.3405      0.2159      0.1005       0.000    
  24    10.00       9.791       9.682       9.560       9.406       9.231       9.088       8.945       8.768       8.507    
        8.223       7.970       7.715       7.364       7.002       6.783       6.626       6.465       6.229       5.966    
        5.719       5.461       5.101       4.455       3.483       3.815       4.263       4.544       4.691       4.748    
        4.757       4.717       4.648       4.521       4.355       4.145       3.774       3.275       2.833       2.427    
        2.000       1.533       1.089      0.7881      0.6120      0.4625      0.3323      0.2517      0.1385       0.000    
  25    10.00       9.818       9.702       9.556       9.394       9.237       9.091       8.954       8.737       8.478    
        8.239       7.995       7.685       7.299       7.018       6.819       6.644       6.455       6.235       5.992    
        5.725       5.468       4.812       3.436      0.3079       2.853       3.817       4.298       4.549       4.659    
        4.684       4.661       4.590       4.442       4.266       4.010       3.626       3.146       2.746       2.306    
        1.814       1.374       1.012      0.7788      0.6360      0.4970      0.3631      0.2675      0.1746       0.000    
  26    10.00       9.844       9.735       9.577       9.411       9.273       9.122       8.949       8.727       8.525    
        8.320       7.996       7.604       7.275       7.070       6.892       6.684       6.439       6.206       5.998    
        5.792       5.512       4.908       3.912       2.864       3.384       3.943       4.293       4.505       4.620    
        4.639       4.613       4.523       4.378       4.207       3.929       3.426       2.983       2.646       2.109    
        1.576       1.213       1.000      0.8441      0.6925      0.5385      0.3992      0.2923      0.1745       0.000    
  27    10.00       9.879       9.746       9.611       9.463       9.303       9.153       8.986       8.787       8.595    
        8.320       7.938       7.598       7.331       7.152       6.951       6.679       6.410       6.220       6.055    
        5.884       5.596       5.145       4.598       4.017       4.041       4.239       4.422       4.555       4.617    
        4.618       4.582       4.493       4.345       4.115       3.680       3.203       2.857       2.339       1.813    
        1.432       1.196       1.042      0.9095      0.7697      0.5923      0.4263      0.3191      0.2145       0.000    
  28    10.00       9.890       9.777       9.649       9.514       9.363       9.207       9.039       8.853       8.630    
        8.293       7.947       7.653       7.397       7.211       7.009       6.776       6.513       6.264       6.100    
        5.948       5.742       5.444       5.038       4.674       4.511       4.523       4.605       4.635       4.645    
        4.616       4.562       4.455       4.247       3.905       3.450       3.047       2.572       2.062       1.714    
        1.438       1.244       1.092      0.9604      0.8168      0.6470      0.4828      0.3628      0.2211       0.000    
  29    10.00       9.895       9.788       9.692       9.562       9.424       9.274       9.106       8.908       8.610    
        8.279       7.976       7.697       7.486       7.273       7.054       6.842       6.633       6.393       6.183    
        6.020       5.847       5.643       5.395       5.065       4.887       4.819       4.786       4.760       4.698    
        4.621       4.513       4.374       4.089       3.681       3.273       2.855       2.378       1.991       1.740    
        1.515       1.301       1.134       1.007      0.8665      0.6925      0.5235      0.3831      0.2233       0.000    
  30    10.00       9.904       9.815       9.731       9.618       9.491       9.358       9.171       8.924       8.621    
        8.280       7.972       7.739       7.531       7.320       7.109       6.932       6.753       6.539       6.314    
        6.121       5.963       5.786       5.608       5.395       5.200       5.117       4.989       4.898       4.764    
        4.606       4.423       4.223       3.919       3.589       3.204       2.773       2.337       2.054       1.824    
        1.569       1.359       1.199       1.046      0.8889      0.7349      0.5576      0.3992      0.2412       0.000    
  31    10.00       9.920       9.844       9.764       9.682       9.582       9.437       9.217       8.932       8.616    
        8.288       8.002       7.781       7.568       7.380       7.185       7.001       6.865       6.658       6.444    
        6.259       6.094       5.939       5.772       5.629       5.474       5.322       5.172       4.998       4.802    
        4.563       4.326       4.118       3.877       3.549       3.148       2.739       2.381       2.153       1.946    
        1.682       1.440       1.252       1.091      0.9342      0.7711      0.5934      0.4264      0.2346       0.000    
  32    10.00       9.932       9.874       9.805       9.725       9.634       9.490       9.241       8.973       8.686    
        8.340       8.043       7.823       7.623       7.434       7.269       7.108       6.937       6.769       6.566    
        6.371       6.193       6.036       5.876       5.748       5.640       5.472       5.282       5.043       4.779    
        4.527       4.300       4.082       3.851       3.538       3.177       2.834       2.521       2.278       2.044    
        1.798       1.545       1.345       1.157      0.9771      0.8295      0.6476      0.4267      0.2119       0.000    
  33    10.00       9.942       9.894       9.838       9.760       9.657       9.474       9.232       9.009       8.743    
        8.407       8.113       7.886       7.668       7.491       7.352       7.209       7.040       6.855       6.666    
        6.463       6.271       6.086       5.933       5.830       5.723       5.538       5.293       5.043       4.797    
        4.552       4.346       4.128       3.840       3.544       3.219       2.925       2.673       2.418       2.163    
        1.933       1.693       1.473       1.275       1.075      0.9004      0.6960      0.4355      0.2051       0.000    
  34    10.00       9.947       9.915       9.867       9.771       9.628       9.451       9.273       9.044       8.756    
        8.459       8.173       7.929       7.711       7.554       7.444       7.294       7.122       6.919       6.740    
        6.552       6.326       6.141       6.001       5.895       5.756       5.538       5.319       5.065       4.794    
        4.588       4.410       4.208       3.924       3.621       3.324       3.053       2.825       2.564       2.306    
        2.086       1.866       1.633       1.429       1.218       1.012      0.7518      0.4829      0.2546       0.000    
  35    10.00       9.957       9.920       9.858       9.739       9.588       9.459       9.307       9.096       8.786    
        8.471       8.205       7.959       7.771       7.639       7.517       7.359       7.168       6.971       6.770    
        6.585       6.382       6.194       6.061       5.944       5.808       5.580       5.317       5.046       4.790    
        4.637       4.464       4.248       4.030       3.772       3.456       3.182       2.997       2.732       2.444    
        2.237       2.016       1.794       1.595       1.358       1.128      0.8664      0.5782      0.2890       0.000    
  36    10.00       9.954       9.901       9.832       9.713       9.570       9.454       9.312       9.099       8.809    
        8.480       8.192       8.007       7.860       7.735       7.583       7.393       7.206       6.993       6.738    
        6.542       6.378       6.218       6.102       5.990       5.825       5.579       5.306       5.029       4.800    
        4.652       4.505       4.305       4.099       3.878       3.590       3.317       3.114       2.881       2.571    
        2.338       2.115       1.888       1.724       1.496       1.240      0.9793      0.6784      0.3450       0.000    
  37    10.00       9.939       9.881       9.805       9.685       9.554       9.423       9.285       9.090       8.777    
        8.444       8.207       8.093       7.953       7.788       7.635       7.416       7.186       6.919       6.661    
        6.515       6.385       6.233       6.111       5.980       5.780       5.550       5.263       5.020       4.851    
        4.700       4.539       4.334       4.154       3.923       3.648       3.432       3.235       2.976       2.668    
        2.389       2.171       1.991       1.807       1.590       1.353       1.103      0.7656      0.4148       0.000    
  38    10.00       9.933       9.857       9.776       9.665       9.536       9.390       9.246       9.038       8.748    
        8.492       8.303       8.158       8.030       7.844       7.606       7.354       7.072       6.783       6.620    
        6.507       6.347       6.200       6.096       5.950       5.737       5.459       5.203       5.062       4.926    
        4.759       4.576       4.380       4.196       3.969       3.717       3.523       3.322       3.015       2.692    
        2.450       2.248       2.064       1.880       1.688       1.459       1.201      0.8759      0.4545       0.000    
  39    10.00       9.914       9.838       9.756       9.647       9.503       9.345       9.193       9.002       8.768    
        8.568       8.427       8.264       8.080       7.804       7.492       7.178       6.875       6.701       6.600    
        6.442       6.270       6.163       6.066       5.927       5.681       5.408       5.242       5.118       4.975    
        4.795       4.621       4.422       4.224       4.032       3.823       3.600       3.366       3.048       2.730    
        2.476       2.274       2.131       1.984       1.776       1.542       1.281      0.9281      0.4545       0.000    
  40    10.00       9.899       9.825       9.743       9.632       9.481       9.319       9.164       9.002       8.807    
        8.642       8.519       8.314       8.014       7.661       7.310       6.993       6.788       6.676       6.550    
        6.375       6.227       6.133       6.014       5.852       5.652       5.473       5.307       5.159       5.024    
        4.858       4.664       4.461       4.275       4.098       3.886       3.645       3.410       3.065       2.717    
        2.488       2.320       2.171       2.045       1.834       1.574       1.334      0.9643      0.4761       0.000    
  41    10.00       9.906       9.819       9.728       9.605       9.468       9.325       9.186       9.031       8.856    
        8.700       8.548       8.265       7.881       7.490       7.173       6.927       6.755       6.638       6.493    
        6.316       6.191       6.084       5.957       5.816       5.673       5.541       5.382       5.206       5.050    
        4.900       4.714       4.510       4.340       4.154       3.948       3.702       3.374       2.992       2.725    
        2.538       2.363       2.226       2.068       1.845       1.587       1.375       1.023      0.5241       0.000    
  42    10.00       9.909       9.811       9.727       9.620       9.492       9.349       9.195       9.055       8.920    
        8.730       8.454       8.098       7.702       7.351       7.108       6.895       6.734       6.598       6.425    
        6.262       6.145       6.036       5.946       5.827       5.723       5.600       5.417       5.229       5.089    
        4.957       4.757       4.537       4.378       4.219       3.987       3.670       3.278       2.939       2.735    
        2.587       2.438       2.269       2.063       1.831       1.624       1.410       1.066      0.5483       0.000    
  43    10.00       9.910       9.820       9.734       9.649       9.534       9.391       9.238       9.085       8.891    
        8.614       8.296       7.932       7.551       7.280       7.078       6.877       6.709       6.544       6.372    
        6.220       6.111       6.031       5.961       5.858       5.744       5.624       5.445       5.277       5.163    
        4.996       4.775       4.569       4.412       4.229       3.945       3.573       3.195       2.960       2.799    
        2.641       2.481       2.274       2.052       1.840       1.640       1.448       1.062      0.4785       0.000    
  44    10.00       9.904       9.822       9.747       9.653       9.565       9.444       9.256       9.049       8.777    
        8.497       8.162       7.765       7.488       7.280       7.056       6.837       6.644       6.465       6.312    
        6.204       6.118       6.044       5.971       5.882       5.766       5.625       5.484       5.354       5.210    
        5.050       4.850       4.617       4.395       4.181       3.891       3.503       3.176       2.988       2.832    
        2.681       2.504       2.297       2.098       1.877       1.655       1.404      0.9096      0.4020       0.000    
  45    10.00       9.904       9.837       9.750       9.661       9.583       9.405       9.190       8.945       8.677    
        8.442       8.040       7.672       7.465       7.252       7.007       6.759       6.562       6.405       6.296    
        6.219       6.144       6.065       5.979       5.883       5.777       5.659       5.539       5.433       5.285    
        5.093       4.880       4.643       4.376       4.132       3.817       3.453       3.196       3.041       2.885    
        2.689       2.484       2.302       2.123       1.930       1.691       1.266      0.7624      0.3862       0.000    
  46    10.00       9.921       9.848       9.757       9.659       9.510       9.322       9.143       8.920       8.657    
        8.318       7.949       7.653       7.395       7.177       6.935       6.688       6.535       6.417       6.317    
        6.246       6.176       6.083       5.980       5.885       5.791       5.695       5.589       5.482       5.346    
        5.167       4.944       4.682       4.379       4.040       3.702       3.437       3.261       3.089       2.909    
        2.684       2.470       2.290       2.145       1.938       1.605       1.135      0.7181      0.3649       0.000    
  47    10.00       9.938       9.871       9.775       9.605       9.425       9.264       9.112       8.911       8.584    
        8.218       7.875       7.590       7.374       7.140       6.872       6.659       6.523       6.430       6.347    
        6.272       6.190       6.098       5.997       5.902       5.822       5.736       5.631       5.508       5.374    
        5.215       5.017       4.678       4.277       3.959       3.710       3.479       3.329       3.170       2.921    
        2.652       2.428       2.259       2.142       1.882       1.484       1.054      0.6910      0.3547       0.000    
  48    10.00       9.946       9.875       9.731       9.559       9.410       9.238       9.084       8.870       8.525    
        8.126       7.815       7.585       7.326       7.055       6.815       6.655       6.521       6.432       6.371    
        6.295       6.197       6.096       6.008       5.933       5.864       5.783       5.666       5.520       5.364    
        5.200       4.973       4.623       4.294       4.015       3.768       3.552       3.382       3.177       2.878    
        2.594       2.414       2.274       2.054       1.706       1.350       1.006      0.6959      0.3744       0.000    
  49    10.00       9.943       9.841       9.713       9.572       9.398       9.225       9.052       8.787       8.422    
        8.078       7.788       7.509       7.264       7.055       6.829       6.623       6.502       6.443       6.384    
        6.313       6.202       6.090       6.017       5.955       5.901       5.810       5.669       5.504       5.354    
        5.182       4.905       4.609       4.388       4.133       3.843       3.582       3.376       3.140       2.821    
        2.592       2.434       2.225       1.893       1.585       1.294      0.9946      0.6958      0.3731       0.000    
  50    10.00       9.935       9.829       9.698       9.571       9.408       9.215       8.999       8.719       8.431    
        8.072       7.708       7.450       7.254       7.078       6.823       6.594       6.504       6.451       6.392    
        6.321       6.207       6.093       6.022       5.969       5.919       5.815       5.654       5.487       5.344    
        5.168       4.882       4.653       4.455       4.188       3.900       3.627       3.345       3.022       2.755    
        2.637       2.458       2.135       1.803       1.573       1.292       1.009      0.6815      0.3038       0.000    

 HEAD WILL BE SAVED ON UNIT   51 AT END OF TIME STEP  41, STRESS PERIOD    2

 DRAWDOWN WILL BE SAVED ON UNIT   52 AT END OF TIME STEP  41, STRESS PERIOD    2
1
  VOLUMETRIC BUDGET FOR ENTIRE MODEL AT END OF TIME STEP 41 IN STRESS PERIOD   2
  ------------------------------------------------------------------------------

     CUMULATIVE VOLUMES      L**3       RATES FOR THIS TIME STEP      L**3/T
     ------------------                 ------------------------

           IN:                                      IN:
           ---                                      ---
             STORAGE =       20284.2559               STORAGE =         478.5840
       CONSTANT HEAD =       25275.4824         CONSTANT HEAD =         616.2372
               WELLS =           0.0000                 WELLS =           0.0000

            TOTAL IN =       45559.7383              TOTAL IN =        1094.8212

          OUT:                                     OUT:
          ----                                     ----
             STORAGE =       9.4320E-03               STORAGE =           0.0000
       CONSTANT HEAD =       25059.7227         CONSTANT HEAD =         594.8210
               WELLS =       20500.0000                 WELLS =         500.0000

           TOTAL OUT =       45559.7305             TOTAL OUT =        1094.8210

            IN - OUT =       7.8125E-03              IN - OUT =       1.2207E-04

 PERCENT DISCREPANCY =           0.00     PERCENT DISCREPANCY =           0.00






          TIME SUMMARY AT END OF TIME STEP  41 IN STRESS PERIOD    2
                    SECONDS     MINUTES      HOURS       DAYS        YEARS
                    -----------------------------------------------------------
   TIME STEP LENGTH  86400.      1440.0      24.000      1.0000     2.73785E-03
 STRESS PERIOD TIME 3.54240E+06  59040.      984.00      41.000     0.11225    
         TOTAL TIME 3.62880E+06  60480.      1008.0      42.000     0.11499    
1
 
 SOLVING FOR HEAD 

 OUTPUT CONTROL FOR STRESS PERIOD    2   TIME STEP  42
    SAVE HEAD FOR ALL LAYERS
    SAVE DRAWDOWN FOR ALL LAYERS
    SAVE BUDGET
    PRINT HEAD FOR ALL LAYERS
    PRINT BUDGET
 UBDSV1 SAVING "         STORAGE" ON UNIT  53 AT TIME STEP 42, STRESS PERIOD   2
 UBDSV2 SAVING "   CONSTANT HEAD" ON UNIT  53 AT TIME STEP 42, STRESS PERIOD   2
 UBDSV1 SAVING "FLOW RIGHT FACE " ON UNIT  53 AT TIME STEP 42, STRESS PERIOD   2
 UBDSV1 SAVING "FLOW FRONT FACE " ON UNIT  53 AT TIME STEP 42, STRESS PERIOD   2
1
              HEAD IN LAYER   1 AT END OF TIME STEP  42 IN STRESS PERIOD    2
  ---------------------------------------------------------------------------

            1           2           3           4           5           6           7           8           9          10
           11          12          13          14          15          16          17          18          19          20
           21          22          23          24          25          26          27          28          29          30
           31          32          33          34          35          36          37          38          39          40
           41          42          43          44          45          46          47          48          49          50
 ........................................................................................................................
   1    10.00       9.958       9.899       9.831       9.765       9.689       9.618       9.548       9.459       9.373    
        9.305       9.239       9.171       9.106       8.999       8.870       8.727       8.614       8.556       8.487    
        8.406       8.341       8.277       8.203       8.104       7.909       7.688       7.534       7.382       7.240    
        7.054       6.757       6.376       5.953       5.515       5.048       4.587       4.202       3.700       3.153    
        2.705       2.276       1.800       1.402       1.157      0.9484      0.7836      0.6643      0.4459       0.000    
   2    10.00       9.957       9.903       9.835       9.768       9.701       9.631       9.538       9.441       9.370    
        9.312       9.255       9.199       9.117       8.995       8.860       8.726       8.614       8.554       8.478    
        8.396       8.347       8.295       8.218       8.093       7.902       7.701       7.542       7.389       7.250    
        7.043       6.732       6.333       5.851       5.383       4.932       4.532       4.160       3.649       3.121    
        2.671       2.189       1.755       1.442       1.211       1.032      0.8282      0.6465      0.3607       0.000    
   3    10.00       9.951       9.898       9.837       9.778       9.711       9.620       9.522       9.454       9.390    
        9.325       9.273       9.223       9.144       9.019       8.853       8.706       8.616       8.545       8.468    
        8.402       8.351       8.297       8.194       8.058       7.888       7.714       7.589       7.411       7.230    
        6.970       6.600       6.145       5.678       5.263       4.842       4.450       4.051       3.521       3.032    
        2.646       2.202       1.805       1.518       1.289       1.104      0.8617      0.5778      0.2620       0.000    
   4    10.00       9.951       9.899       9.840       9.773       9.695       9.601       9.527       9.468       9.402    
        9.344       9.302       9.246       9.156       9.035       8.859       8.706       8.621       8.542       8.473    
        8.401       8.338       8.270       8.162       8.027       7.875       7.718       7.563       7.406       7.200    
        6.874       6.386       5.903       5.548       5.203       4.768       4.297       3.829       3.405       3.036    
        2.674       2.262       1.889       1.630       1.372       1.137      0.8373      0.5198      0.2490       0.000    
   5    10.00       9.948       9.895       9.828       9.761       9.688       9.604       9.540       9.479       9.417    
        9.367       9.325       9.252       9.148       9.014       8.853       8.723       8.630       8.552       8.459    
        8.374       8.305       8.223       8.117       7.997       7.841       7.684       7.542       7.384       7.134    
        6.665       6.120       5.733       5.456       5.113       4.643       4.156       3.732       3.414       3.080    
        2.726       2.346       1.976       1.736       1.459       1.119      0.7622      0.4636      0.2332       0.000    
   6    10.00       9.941       9.878       9.822       9.761       9.682       9.611       9.555       9.491       9.433    
        9.386       9.335       9.243       9.125       9.008       8.873       8.742       8.635       8.532       8.424    
        8.339       8.258       8.186       8.091       7.937       7.784       7.658       7.513       7.293       6.915    
        6.399       5.905       5.583       5.343       5.034       4.569       4.085       3.726       3.458       3.155    
        2.831       2.497       2.118       1.796       1.430       1.056      0.6733      0.4001      0.2203       0.000    
   7    10.00       9.929       9.868       9.816       9.753       9.687       9.624       9.571       9.512       9.455    
        9.397       9.320       9.219       9.108       8.997       8.892       8.754       8.609       8.490       8.384    
        8.294       8.216       8.154       8.035       7.878       7.748       7.620       7.426       7.074       6.590    
        6.098       5.697       5.478       5.264       4.905       4.470       4.144       3.796       3.504       3.306    
        2.999       2.641       2.196       1.736       1.326      0.9170      0.5802      0.4031      0.2075       0.000    
   8    10.00       9.929       9.873       9.815       9.751       9.692       9.637       9.584       9.530       9.475    
        9.399       9.300       9.201       9.096       8.993       8.875       8.703       8.550       8.453       8.351    
        8.250       8.183       8.091       7.963       7.826       7.691       7.476       7.175       6.732       6.308    
        5.938       5.628       5.426       5.181       4.798       4.439       4.145       3.888       3.661       3.433    
        3.134       2.685       2.138       1.648       1.221      0.8588      0.6144      0.3949      0.1893       0.000    
   9    10.00       9.940       9.873       9.808       9.761       9.712       9.657       9.601       9.541       9.482    
        9.394       9.283       9.174       9.069       8.960       8.820       8.654       8.513       8.407       8.303    
        8.214       8.128       8.003       7.881       7.755       7.589       7.280       6.876       6.461       6.151    
        5.846       5.589       5.367       5.061       4.706       4.404       4.181       3.991       3.788       3.539    
        3.180       2.690       2.133       1.646       1.230      0.8780      0.6200      0.3985      0.2038       0.000    
  10    10.00       9.937       9.867       9.814       9.770       9.723       9.673       9.625       9.555       9.469    
        9.363       9.246       9.142       9.044       8.931       8.759       8.585       8.462       8.365       8.267    
        8.182       8.064       7.926       7.789       7.642       7.403       7.008       6.590       6.234       5.985    
        5.788       5.569       5.302       4.991       4.659       4.404       4.233       4.069       3.850       3.564    
        3.154       2.646       2.137       1.721       1.332      0.9665      0.6396      0.4233      0.2275       0.000    
  11    10.00       9.924       9.867       9.824       9.780       9.740       9.695       9.627       9.532       9.435    
        9.329       9.215       9.119       9.001       8.848       8.684       8.540       8.431       8.342       8.242    
        8.117       7.966       7.781       7.624       7.380       7.047       6.710       6.399       6.099       5.912    
        5.760       5.483       5.190       4.933       4.677       4.480       4.302       4.092       3.823       3.478    
        3.093       2.701       2.212       1.803       1.432       1.069      0.7188      0.4158      0.1744       0.000    
  12    10.00       9.927       9.874       9.828       9.791       9.750       9.697       9.603       9.493       9.401    
        9.302       9.183       9.066       8.927       8.793       8.641       8.502       8.408       8.309       8.173    
        7.967       7.742       7.524       7.306       6.980       6.728       6.534       6.231       5.981       5.837    
        5.663       5.409       5.164       4.925       4.740       4.552       4.327       4.072       3.745       3.400    
        3.074       2.720       2.248       1.846       1.497       1.117      0.7565      0.3923      0.1302       0.000    
  13    10.00       9.941       9.891       9.842       9.799       9.750       9.666       9.559       9.455       9.361    
        9.250       9.134       9.014       8.869       8.720       8.578       8.477       8.360       8.231       7.965    
        7.655       7.418       7.176       6.886       6.635       6.511       6.293       6.027       5.888       5.754    
        5.548       5.326       5.133       4.952       4.792       4.618       4.351       4.007       3.693       3.368    
        3.057       2.690       2.186       1.812       1.512       1.108      0.6956      0.3389      0.1037       0.000    
  14    10.00       9.954       9.911       9.860       9.800       9.719       9.612       9.505       9.411       9.308    
        9.194       9.086       8.949       8.798       8.667       8.543       8.391       8.241       7.988       7.594    
        7.295       7.063       6.743       6.514       6.394       6.281       6.067       5.899       5.767       5.630    
        5.450       5.286       5.147       4.989       4.816       4.643       4.343       3.970       3.647       3.312    
        2.994       2.539       2.059       1.765       1.425       1.062      0.6968      0.3139      8.9403E-02   0.000    
  15    10.00       9.963       9.919       9.862       9.790       9.673       9.543       9.449       9.362       9.259    
        9.171       9.059       8.885       8.713       8.592       8.403       8.211       8.053       7.667       7.235    
        6.964       6.656       6.383       6.294       6.228       6.088       5.905       5.749       5.645       5.538    
        5.398       5.277       5.162       5.022       4.852       4.642       4.294       3.883       3.543       3.239    
        2.898       2.440       2.062       1.695       1.291      0.9717      0.6228      0.2879      9.7402E-02   0.000    
  16    10.00       9.970       9.922       9.852       9.748       9.609       9.492       9.417       9.341       9.238    
        9.131       8.969       8.753       8.587       8.415       8.197       8.067       7.750       7.207       6.827    
        6.585       6.319       6.219       6.165       6.049       5.869       5.725       5.645       5.590       5.497    
        5.378       5.269       5.171       5.032       4.828       4.548       4.154       3.801       3.532       3.211    
        2.816       2.366       1.960       1.562       1.215      0.8609      0.5589      0.2908      0.1038       0.000    
  17    10.00       9.966       9.908       9.816       9.697       9.554       9.451       9.386       9.295       9.187    
        8.999       8.772       8.591       8.422       8.200       7.982       7.713       7.206       6.749       6.509    
        6.318       6.173       6.103       5.983       5.803       5.675       5.630       5.602       5.547       5.451    
        5.348       5.251       5.149       5.011       4.724       4.360       4.056       3.826       3.566       3.180    
        2.681       2.242       1.865       1.492       1.089      0.7183      0.4765      0.2642      0.1100       0.000    
  18    10.00       9.952       9.878       9.771       9.616       9.496       9.423       9.327       9.217       9.056    
        8.818       8.629       8.458       8.202       7.912       7.612       7.233       6.788       6.506       6.320    
        6.174       6.048       5.934       5.773       5.648       5.606       5.586       5.559       5.493       5.402    
        5.313       5.216       5.087       4.877       4.584       4.290       4.051       3.863       3.538       3.065    
        2.586       2.126       1.748       1.397       1.011      0.6627      0.4029      0.2208      0.1031       0.000    
  19    10.00       9.936       9.851       9.696       9.542       9.471       9.381       9.256       9.123       8.940    
        8.728       8.542       8.271       7.904       7.601       7.304       6.895       6.530       6.350       6.228    
        6.074       5.915       5.786       5.650       5.582       5.560       5.536       5.489       5.415       5.338    
        5.253       5.148       4.980       4.764       4.525       4.276       4.072       3.831       3.373       2.908    
        2.529       2.060       1.650       1.308      0.9292      0.5973      0.3626      0.2096      0.1049       0.000    
  20    10.00       9.917       9.788       9.627       9.513       9.433       9.333       9.200       9.042       8.872    
        8.651       8.373       8.005       7.668       7.398       7.041       6.667       6.479       6.326       6.161    
        5.994       5.827       5.670       5.569       5.522       5.484       5.432       5.385       5.315       5.247    
        5.167       5.063       4.896       4.706       4.491       4.280       4.063       3.691       3.210       2.815    
        2.396       1.942       1.578       1.237      0.8836      0.5368      0.3149      0.2114      0.1068       0.000    
  21    10.00       9.869       9.736       9.604       9.486       9.396       9.286       9.117       8.957       8.792    
        8.505       8.154       7.807       7.528       7.238       6.894       6.627       6.462       6.287       6.106    
        5.903       5.714       5.576       5.472       5.395       5.328       5.286       5.245       5.174       5.122    
        5.065       4.959       4.817       4.653       4.462       4.259       3.954       3.578       3.161       2.692    
        2.271       1.844       1.530       1.216      0.7678      0.4531      0.3226      0.2353      0.1131       0.000    
  22    10.00       9.849       9.693       9.565       9.465       9.357       9.197       9.028       8.885       8.667    
        8.364       7.996       7.696       7.463       7.145       6.827       6.601       6.431       6.258       6.040    
        5.805       5.614       5.436       5.277       5.174       5.126       5.094       5.041       5.016       4.986    
        4.942       4.858       4.752       4.600       4.422       4.226       3.908       3.531       3.040       2.578    
        2.214       1.827       1.478       1.013      0.6314      0.4539      0.3411      0.2268      9.0028E-02   0.000    
  23    10.00       9.816       9.664       9.558       9.448       9.288       9.106       8.974       8.793       8.566    
        8.256       7.928       7.696       7.402       7.059       6.782       6.590       6.435       6.239       5.978    
        5.728       5.503       5.267       4.986       4.736       4.690       4.764       4.800       4.845       4.857    
        4.836       4.777       4.683       4.561       4.391       4.184       3.888       3.418       2.901       2.520    
        2.170       1.730       1.229      0.8264      0.6153      0.4654      0.3403      0.2158      0.1004       0.000    
  24    10.00       9.791       9.680       9.558       9.404       9.227       9.084       8.940       8.761       8.499    
        8.213       7.959       7.703       7.350       6.986       6.767       6.609       6.448       6.212       5.948    
        5.700       5.443       5.082       4.436       3.463       3.795       4.243       4.524       4.672       4.729    
        4.739       4.699       4.631       4.505       4.341       4.132       3.764       3.268       2.827       2.423    
        1.997       1.531       1.088      0.7875      0.6115      0.4622      0.3321      0.2516      0.1384       0.000    
  25    10.00       9.817       9.701       9.554       9.391       9.233       9.086       8.949       8.731       8.470    
        8.230       7.985       7.673       7.285       7.003       6.803       6.627       6.438       6.218       5.974    
        5.706       5.450       4.793       3.416      0.2861       2.832       3.796       4.277       4.529       4.640    
        4.665       4.643       4.573       4.427       4.252       3.998       3.616       3.139       2.740       2.303    
        1.812       1.373       1.011      0.7782      0.6355      0.4966      0.3628      0.2673      0.1744       0.000    
  26    10.00       9.844       9.734       9.576       9.408       9.269       9.117       8.944       8.721       8.517    
        8.311       7.986       7.591       7.261       7.055       6.876       6.668       6.422       6.189       5.980    
        5.774       5.493       4.889       3.892       2.843       3.363       3.922       4.272       4.485       4.600    
        4.620       4.595       4.506       4.362       4.193       3.918       3.417       2.977       2.641       2.106    
        1.574       1.212      0.9997      0.8435      0.6920      0.5382      0.3989      0.2921      0.1744       0.000    
  27    10.00       9.878       9.745       9.610       9.460       9.300       9.149       8.981       8.781       8.587    
        8.311       7.927       7.586       7.318       7.137       6.936       6.663       6.393       6.203       6.037    
        5.866       5.577       5.126       4.578       3.997       4.020       4.218       4.401       4.535       4.598    
        4.599       4.564       4.476       4.329       4.101       3.669       3.196       2.851       2.335       1.811    
        1.431       1.195       1.041      0.9088      0.7692      0.5919      0.4261      0.3189      0.2143       0.000    
  28    10.00       9.889       9.776       9.647       9.511       9.360       9.203       9.035       8.847       8.623    
        8.285       7.936       7.641       7.384       7.197       6.994       6.760       6.497       6.247       6.083    
        5.930       5.724       5.425       5.018       4.653       4.490       4.503       4.585       4.615       4.625    
        4.598       4.545       4.439       4.232       3.893       3.441       3.040       2.568       2.059       1.713    
        1.437       1.243       1.091      0.9597      0.8162      0.6466      0.4825      0.3625      0.2210       0.000    
  29    10.00       9.894       9.787       9.690       9.560       9.421       9.271       9.102       8.903       8.603    
        8.270       7.966       7.686       7.474       7.259       7.040       6.827       6.617       6.376       6.165    
        6.002       5.829       5.624       5.376       5.046       4.867       4.799       4.766       4.741       4.680    
        4.604       4.497       4.360       4.077       3.672       3.266       2.850       2.375       1.988       1.738    
        1.513       1.300       1.133       1.006      0.8660      0.6921      0.5231      0.3829      0.2232       0.000    
  30    10.00       9.904       9.815       9.730       9.616       9.488       9.355       9.167       8.919       8.614    
        8.272       7.962       7.728       7.519       7.307       7.095       6.917       6.738       6.523       6.298    
        6.104       5.946       5.768       5.590       5.377       5.181       5.098       4.970       4.880       4.747    
        4.590       4.410       4.211       3.910       3.581       3.198       2.769       2.334       2.052       1.822    
        1.568       1.358       1.199       1.046      0.8884      0.7344      0.5573      0.3990      0.2411       0.000    
  31    10.00       9.920       9.843       9.763       9.681       9.580       9.435       9.214       8.927       8.610    
        8.280       7.992       7.770       7.556       7.368       7.172       6.987       6.851       6.643       6.428    
        6.243       6.077       5.921       5.754       5.612       5.457       5.304       5.154       4.981       4.787    
        4.550       4.315       4.108       3.869       3.542       3.143       2.735       2.378       2.151       1.944    
        1.680       1.439       1.252       1.090      0.9337      0.7706      0.5931      0.4261      0.2345       0.000    
  32    10.00       9.932       9.873       9.804       9.724       9.633       9.488       9.237       8.969       8.681    
        8.333       8.035       7.813       7.612       7.422       7.257       7.095       6.923       6.755       6.551    
        6.355       6.176       6.020       5.860       5.732       5.624       5.455       5.266       5.029       4.766    
        4.516       4.291       4.074       3.844       3.533       3.173       2.831       2.519       2.276       2.043    
        1.797       1.544       1.345       1.156      0.9766      0.8291      0.6473      0.4265      0.2118       0.000    
  33    10.00       9.942       9.893       9.837       9.760       9.656       9.472       9.229       9.005       8.738    
        8.400       8.105       7.877       7.658       7.480       7.341       7.197       7.027       6.842       6.652    
        6.448       6.256       6.071       5.918       5.815       5.707       5.524       5.279       5.032       4.786    
        4.544       4.339       4.121       3.834       3.539       3.215       2.922       2.670       2.416       2.161    
        1.932       1.692       1.473       1.274       1.075      0.9001      0.6958      0.4354      0.2051       0.000    
  34    10.00       9.947       9.915       9.866       9.770       9.627       9.449       9.270       9.040       8.751    
        8.453       8.166       7.921       7.702       7.544       7.434       7.283       7.111       6.907       6.727    
        6.539       6.312       6.127       5.987       5.881       5.742       5.525       5.307       5.055       4.786    
        4.581       4.403       4.202       3.919       3.617       3.320       3.050       2.823       2.562       2.305    
        2.085       1.865       1.632       1.429       1.218       1.012      0.7516      0.4828      0.2546       0.000    
  35    10.00       9.956       9.919       9.857       9.738       9.587       9.457       9.305       9.093       8.782    
        8.465       8.199       7.951       7.763       7.630       7.507       7.349       7.157       6.960       6.759    
        6.574       6.370       6.182       6.049       5.932       5.796       5.569       5.307       5.038       4.783    
        4.631       4.459       4.244       4.027       3.769       3.453       3.180       2.996       2.731       2.443    
        2.236       2.015       1.794       1.594       1.358       1.128      0.8663      0.5782      0.2889       0.000    
  36    10.00       9.954       9.901       9.831       9.712       9.569       9.452       9.310       9.097       8.806    
        8.476       8.186       8.000       7.853       7.727       7.575       7.384       7.196       6.983       6.728    
        6.532       6.368       6.208       6.092       5.980       5.815       5.570       5.299       5.023       4.795    
        4.648       4.501       4.302       4.096       3.875       3.588       3.315       3.112       2.880       2.570    
        2.337       2.114       1.888       1.723       1.495       1.240      0.9792      0.6783      0.3450       0.000    
  37    10.00       9.939       9.881       9.805       9.685       9.553       9.422       9.284       9.088       8.774    
        8.439       8.202       8.087       7.946       7.781       7.627       7.407       7.178       6.911       6.653    
        6.506       6.377       6.225       6.103       5.971       5.772       5.543       5.257       5.016       4.847    
        4.697       4.535       4.331       4.151       3.921       3.647       3.431       3.234       2.975       2.667    
        2.389       2.170       1.990       1.806       1.590       1.353       1.103      0.7656      0.4148       0.000    
  38    10.00       9.932       9.857       9.775       9.664       9.535       9.389       9.245       9.036       8.745    
        8.488       8.298       8.153       8.024       7.838       7.599       7.347       7.065       6.777       6.614    
        6.500       6.340       6.193       6.089       5.944       5.731       5.454       5.199       5.059       4.923    
        4.756       4.574       4.377       4.194       3.967       3.716       3.522       3.321       3.014       2.691    
        2.449       2.247       2.064       1.880       1.688       1.459       1.201      0.8759      0.4544       0.000    
  39    10.00       9.914       9.837       9.756       9.647       9.502       9.344       9.191       9.000       8.765    
        8.565       8.423       8.259       8.075       7.799       7.486       7.173       6.870       6.697       6.595    
        6.437       6.265       6.158       6.061       5.922       5.677       5.405       5.239       5.115       4.972    
        4.793       4.619       4.420       4.223       4.031       3.822       3.599       3.365       3.048       2.729    
        2.476       2.273       2.131       1.984       1.775       1.542       1.281      0.9280      0.4545       0.000    
  40    10.00       9.899       9.824       9.742       9.631       9.480       9.317       9.162       9.000       8.805    
        8.639       8.516       8.310       8.010       7.657       7.306       6.989       6.784       6.672       6.546    
        6.371       6.223       6.129       6.010       5.849       5.650       5.470       5.304       5.157       5.022    
        4.856       4.662       4.459       4.274       4.097       3.885       3.644       3.409       3.065       2.717    
        2.488       2.319       2.171       2.045       1.834       1.574       1.334      0.9642      0.4760       0.000    
  41    10.00       9.906       9.818       9.728       9.605       9.467       9.324       9.185       9.029       8.854    
        8.697       8.545       8.263       7.878       7.488       7.171       6.924       6.752       6.635       6.490    
        6.313       6.188       6.081       5.954       5.813       5.671       5.539       5.380       5.204       5.048    
        4.898       4.713       4.508       4.339       4.153       3.947       3.701       3.373       2.991       2.724    
        2.538       2.363       2.226       2.068       1.844       1.587       1.375       1.023      0.5240       0.000    
  42    10.00       9.909       9.811       9.727       9.620       9.491       9.349       9.194       9.054       8.919    
        8.728       8.452       8.096       7.699       7.349       7.106       6.893       6.732       6.595       6.422    
        6.259       6.143       6.034       5.944       5.825       5.721       5.598       5.415       5.227       5.088    
        4.956       4.755       4.536       4.377       4.218       3.986       3.669       3.277       2.938       2.735    
        2.586       2.438       2.269       2.062       1.831       1.624       1.410       1.066      0.5482       0.000    
  43    10.00       9.910       9.820       9.734       9.648       9.534       9.391       9.237       9.084       8.889    
        8.613       8.294       7.931       7.549       7.279       7.076       6.875       6.707       6.541       6.370    
        6.218       6.109       6.029       5.960       5.856       5.742       5.622       5.444       5.276       5.162    
        4.995       4.774       4.568       4.411       4.228       3.944       3.573       3.195       2.959       2.799    
        2.641       2.480       2.274       2.051       1.840       1.640       1.448       1.062      0.4785       0.000    
  44    10.00       9.904       9.822       9.747       9.653       9.565       9.443       9.255       9.048       8.776    
        8.496       8.161       7.763       7.487       7.278       7.054       6.835       6.642       6.463       6.310    
        6.203       6.116       6.042       5.970       5.880       5.765       5.624       5.483       5.353       5.209    
        5.048       4.849       4.616       4.394       4.180       3.890       3.503       3.176       2.988       2.832    
        2.681       2.504       2.297       2.098       1.877       1.655       1.404      0.9096      0.4020       0.000    
  45    10.00       9.904       9.836       9.750       9.661       9.582       9.404       9.189       8.945       8.677    
        8.441       8.039       7.671       7.464       7.251       7.006       6.758       6.561       6.404       6.295    
        6.218       6.142       6.064       5.977       5.881       5.776       5.658       5.538       5.432       5.284    
        5.091       4.878       4.642       4.375       4.131       3.817       3.452       3.195       3.040       2.884    
        2.688       2.484       2.302       2.123       1.930       1.691       1.266      0.7624      0.3861       0.000    
  46    10.00       9.921       9.848       9.757       9.658       9.509       9.321       9.143       8.919       8.657    
        8.318       7.948       7.652       7.394       7.176       6.934       6.687       6.533       6.416       6.316    
        6.245       6.175       6.082       5.979       5.884       5.790       5.694       5.588       5.481       5.345    
        5.166       4.943       4.681       4.379       4.039       3.702       3.436       3.261       3.088       2.909    
        2.683       2.470       2.289       2.145       1.938       1.604       1.135      0.7181      0.3648       0.000    
  47    10.00       9.938       9.871       9.775       9.605       9.425       9.264       9.111       8.911       8.583    
        8.217       7.874       7.589       7.373       7.139       6.871       6.658       6.521       6.428       6.346    
        6.270       6.189       6.097       5.995       5.901       5.820       5.735       5.630       5.507       5.372    
        5.214       5.016       4.677       4.277       3.958       3.709       3.479       3.329       3.170       2.921    
        2.652       2.428       2.259       2.142       1.882       1.484       1.054      0.6910      0.3547       0.000    
  48    10.00       9.946       9.875       9.731       9.559       9.410       9.238       9.084       8.869       8.524    
        8.126       7.815       7.584       7.325       7.054       6.814       6.654       6.520       6.431       6.370    
        6.294       6.196       6.095       6.007       5.931       5.863       5.781       5.665       5.519       5.363    
        5.199       4.972       4.622       4.293       4.015       3.767       3.552       3.381       3.177       2.878    
        2.594       2.414       2.274       2.053       1.706       1.350       1.006      0.6959      0.3744       0.000    
  49    10.00       9.943       9.841       9.713       9.572       9.398       9.225       9.052       8.786       8.421    
        8.078       7.787       7.508       7.263       7.054       6.828       6.622       6.501       6.442       6.383    
        6.312       6.201       6.089       6.016       5.954       5.900       5.808       5.667       5.503       5.353    
        5.181       4.904       4.608       4.388       4.132       3.843       3.581       3.375       3.139       2.821    
        2.591       2.434       2.224       1.893       1.585       1.294      0.9946      0.6958      0.3731       0.000    
  50    10.00       9.935       9.829       9.698       9.571       9.408       9.215       8.998       8.719       8.430    
        8.071       7.707       7.449       7.254       7.077       6.822       6.593       6.503       6.450       6.391    
        6.320       6.206       6.091       6.020       5.968       5.918       5.814       5.653       5.486       5.343    
        5.167       4.882       4.652       4.455       4.187       3.900       3.626       3.344       3.022       2.755    
        2.637       2.458       2.135       1.803       1.573       1.292       1.008      0.6815      0.3038       0.000    

 HEAD WILL BE SAVED ON UNIT   51 AT END OF TIME STEP  42, STRESS PERIOD    2

 DRAWDOWN WILL BE SAVED ON UNIT   52 AT END OF TIME STEP  42, STRESS PERIOD    2
1
  VOLUMETRIC BUDGET FOR ENTIRE MODEL AT END OF TIME STEP 42 IN STRESS PERIOD   2
  ------------------------------------------------------------------------------

     CUMULATIVE VOLUMES      L**3       RATES FOR THIS TIME STEP      L**3/T
     ------------------                 ------------------------

           IN:                                      IN:
           ---                                      ---
             STORAGE =       20761.3281               STORAGE =         477.0730
       CONSTANT HEAD =       25892.9980         CONSTANT HEAD =         617.5165
               WELLS =           0.0000                 WELLS =           0.0000

            TOTAL IN =       46654.3281              TOTAL IN =        1094.5895

          OUT:                                     OUT:
          ----                                     ----
             STORAGE =       9.4320E-03               STORAGE =           0.0000
       CONSTANT HEAD =       25654.3125         CONSTANT HEAD =         594.5897
               WELLS =       21000.0000                 WELLS =         500.0000

           TOTAL OUT =       46654.3203             TOTAL OUT =        1094.5897

            IN - OUT =       7.8125E-03              IN - OUT =      -2.4414E-04

 PERCENT DISCREPANCY =           0.00     PERCENT DISCREPANCY =           0.00






          TIME SUMMARY AT END OF TIME STEP  42 IN STRESS PERIOD    2
                    SECONDS     MINUTES      HOURS       DAYS        YEARS
                    -----------------------------------------------------------
   TIME STEP LENGTH  86400.      1440.0      24.000      1.0000     2.73785E-03
 STRESS PERIOD TIME 3.62880E+06  60480.      1008.0      42.000     0.11499    
         TOTAL TIME 3.71520E+06  61920.      1032.0      43.000     0.11773    
1
 
 SOLVING FOR HEAD 

 OUTPUT CONTROL FOR STRESS PERIOD    2   TIME STEP  43
    SAVE HEAD FOR ALL LAYERS
    SAVE DRAWDOWN FOR ALL LAYERS
    SAVE BUDGET
    PRINT HEAD FOR ALL LAYERS
    PRINT BUDGET
 UBDSV1 SAVING "         STORAGE" ON UNIT  53 AT TIME STEP 43, STRESS PERIOD   2
 UBDSV2 SAVING "   CONSTANT HEAD" ON UNIT  53 AT TIME STEP 43, STRESS PERIOD   2
 UBDSV1 SAVING "FLOW RIGHT FACE " ON UNIT  53 AT TIME STEP 43, STRESS PERIOD   2
 UBDSV1 SAVING "FLOW FRONT FACE " ON UNIT  53 AT TIME STEP 43, STRESS PERIOD   2
1
              HEAD IN LAYER   1 AT END OF TIME STEP  43 IN STRESS PERIOD    2
  ---------------------------------------------------------------------------

            1           2           3           4           5           6           7           8           9          10
           11          12          13          14          15          16          17          18          19          20
           21          22          23          24          25          26          27          28          29          30
           31          32          33          34          35          36          37          38          39          40
           41          42          43          44          45          46          47          48          49          50
 ........................................................................................................................
   1    10.00       9.958       9.898       9.830       9.764       9.689       9.617       9.547       9.458       9.371    
        9.304       9.238       9.170       9.104       8.997       8.868       8.724       8.611       8.553       8.484    
        8.403       8.338       8.274       8.200       8.101       7.906       7.685       7.530       7.379       7.237    
        7.051       6.754       6.374       5.951       5.513       5.046       4.585       4.200       3.698       3.152    
        2.704       2.275       1.800       1.401       1.156      0.9480      0.7833      0.6640      0.4457       0.000    
   2    10.00       9.957       9.903       9.834       9.767       9.701       9.630       9.537       9.440       9.369    
        9.310       9.254       9.197       9.115       8.993       8.858       8.723       8.611       8.551       8.475    
        8.393       8.344       8.292       8.215       8.089       7.898       7.698       7.539       7.386       7.247    
        7.040       6.729       6.330       5.849       5.381       4.930       4.530       4.159       3.647       3.120    
        2.670       2.188       1.754       1.442       1.211       1.032      0.8279      0.6463      0.3605       0.000    
   3    10.00       9.951       9.897       9.836       9.777       9.710       9.619       9.521       9.453       9.388    
        9.323       9.271       9.221       9.142       9.017       8.851       8.704       8.613       8.542       8.465    
        8.399       8.348       8.294       8.191       8.055       7.884       7.711       7.586       7.408       7.227    
        6.967       6.597       6.142       5.676       5.261       4.840       4.449       4.050       3.520       3.030    
        2.645       2.201       1.804       1.517       1.288       1.103      0.8614      0.5776      0.2619       0.000    
   4    10.00       9.951       9.898       9.839       9.772       9.694       9.600       9.526       9.466       9.400    
        9.343       9.300       9.244       9.155       9.033       8.856       8.703       8.618       8.539       8.469    
        8.398       8.334       8.267       8.159       8.024       7.872       7.714       7.560       7.402       7.197    
        6.870       6.383       5.900       5.545       5.200       4.765       4.295       3.827       3.403       3.034    
        2.673       2.261       1.888       1.629       1.372       1.136      0.8369      0.5196      0.2489       0.000    
   5    10.00       9.948       9.894       9.828       9.760       9.687       9.603       9.539       9.477       9.416    
        9.366       9.324       9.250       9.146       9.011       8.850       8.720       8.627       8.549       8.456    
        8.370       8.302       8.219       8.113       7.993       7.837       7.680       7.538       7.380       7.130    
        6.662       6.116       5.729       5.452       5.110       4.640       4.154       3.729       3.412       3.078    
        2.724       2.345       1.975       1.735       1.458       1.118      0.7619      0.4634      0.2331       0.000    
   6    10.00       9.941       9.877       9.822       9.760       9.681       9.610       9.554       9.490       9.432    
        9.384       9.333       9.241       9.123       9.006       8.871       8.740       8.632       8.529       8.421    
        8.335       8.255       8.183       8.087       7.933       7.780       7.654       7.509       7.289       6.911    
        6.395       5.901       5.579       5.339       5.030       4.565       4.081       3.723       3.455       3.153    
        2.829       2.496       2.117       1.795       1.429       1.055      0.6730      0.3999      0.2202       0.000    
   7    10.00       9.929       9.867       9.816       9.752       9.686       9.623       9.570       9.511       9.453    
        9.396       9.318       9.217       9.106       8.995       8.889       8.751       8.605       8.486       8.380    
        8.290       8.212       8.150       8.030       7.873       7.744       7.615       7.422       7.069       6.585    
        6.092       5.692       5.473       5.259       4.901       4.466       4.140       3.793       3.501       3.303    
        2.996       2.639       2.194       1.735       1.326      0.9166      0.5800      0.4029      0.2074       0.000    
   8    10.00       9.928       9.873       9.814       9.750       9.692       9.636       9.583       9.528       9.474    
        9.397       9.299       9.199       9.094       8.991       8.872       8.700       8.546       8.449       8.347    
        8.246       8.179       8.087       7.959       7.822       7.686       7.471       7.170       6.726       6.302    
        5.932       5.622       5.421       5.176       4.793       4.434       4.140       3.885       3.658       3.430    
        3.132       2.683       2.137       1.647       1.220      0.8583      0.6141      0.3948      0.1893       0.000    
   9    10.00       9.940       9.872       9.808       9.761       9.712       9.656       9.600       9.539       9.481    
        9.393       9.281       9.172       9.067       8.957       8.817       8.650       8.509       8.403       8.299    
        8.209       8.123       7.998       7.876       7.749       7.583       7.274       6.869       6.454       6.144    
        5.839       5.582       5.361       5.055       4.700       4.399       4.176       3.987       3.784       3.536    
        3.178       2.688       2.132       1.645       1.230      0.8775      0.6197      0.3983      0.2037       0.000    
  10    10.00       9.937       9.866       9.814       9.770       9.723       9.673       9.624       9.554       9.468    
        9.361       9.244       9.140       9.042       8.928       8.756       8.581       8.458       8.360       8.262    
        8.178       8.059       7.921       7.783       7.636       7.396       7.001       6.582       6.226       5.977    
        5.780       5.561       5.294       4.984       4.653       4.399       4.228       4.064       3.845       3.561    
        3.151       2.644       2.136       1.720       1.331      0.9659      0.6393      0.4231      0.2274       0.000    
  11    10.00       9.924       9.867       9.823       9.780       9.740       9.694       9.626       9.531       9.434    
        9.327       9.212       9.117       8.999       8.845       8.680       8.536       8.426       8.337       8.237    
        8.112       7.960       7.774       7.617       7.372       7.038       6.701       6.390       6.090       5.903    
        5.751       5.475       5.182       4.926       4.671       4.474       4.296       4.087       3.818       3.475    
        3.090       2.698       2.211       1.802       1.431       1.069      0.7184      0.4156      0.1743       0.000    
  12    10.00       9.926       9.873       9.827       9.791       9.749       9.696       9.602       9.492       9.399    
        9.300       9.181       9.064       8.924       8.789       8.637       8.498       8.403       8.304       8.167    
        7.960       7.735       7.516       7.297       6.971       6.718       6.523       6.221       5.971       5.827    
        5.653       5.399       5.156       4.917       4.732       4.545       4.321       4.067       3.741       3.396    
        3.071       2.717       2.247       1.844       1.496       1.117      0.7561      0.3921      0.1301       0.000    
  13    10.00       9.941       9.890       9.842       9.798       9.749       9.665       9.558       9.454       9.359    
        9.248       9.132       9.010       8.865       8.716       8.573       8.472       8.355       8.225       7.958    
        7.647       7.409       7.166       6.875       6.623       6.499       6.281       6.015       5.876       5.743    
        5.538       5.316       5.123       4.943       4.784       4.611       4.344       4.002       3.688       3.364    
        3.054       2.688       2.184       1.810       1.511       1.108      0.6952      0.3387      0.1037       0.000    
  14    10.00       9.954       9.911       9.860       9.799       9.718       9.611       9.503       9.409       9.305    
        9.191       9.083       8.945       8.793       8.662       8.538       8.385       8.235       7.980       7.584    
        7.284       7.052       6.731       6.501       6.381       6.268       6.053       5.886       5.754       5.617    
        5.438       5.275       5.137       4.979       4.807       4.635       4.336       3.964       3.641       3.308    
        2.991       2.536       2.057       1.763       1.424       1.061      0.6963      0.3137      8.9347E-02   0.000    
  15    10.00       9.963       9.919       9.862       9.790       9.672       9.542       9.447       9.360       9.257    
        9.168       9.056       8.881       8.708       8.587       8.397       8.204       8.045       7.657       7.224    
        6.951       6.642       6.368       6.280       6.214       6.074       5.891       5.735       5.631       5.524    
        5.385       5.265       5.150       5.011       4.842       4.633       4.287       3.877       3.538       3.234    
        2.895       2.437       2.060       1.694       1.290      0.9710      0.6223      0.2877      9.7335E-02   0.000    
  16    10.00       9.970       9.922       9.852       9.747       9.607       9.491       9.415       9.338       9.235    
        9.128       8.965       8.748       8.581       8.408       8.189       8.059       7.740       7.194       6.813    
        6.571       6.304       6.204       6.150       6.033       5.853       5.710       5.630       5.576       5.483    
        5.365       5.256       5.159       5.021       4.818       4.539       4.146       3.794       3.526       3.206    
        2.812       2.363       1.958       1.560       1.214      0.8601      0.5584      0.2906      0.1037       0.000    
  17    10.00       9.966       9.908       9.815       9.696       9.552       9.449       9.384       9.292       9.184    
        8.994       8.767       8.585       8.414       8.192       7.973       7.702       7.193       6.735       6.494    
        6.302       6.157       6.087       5.967       5.787       5.659       5.614       5.586       5.532       5.437    
        5.334       5.238       5.136       4.999       4.714       4.351       4.048       3.818       3.560       3.175    
        2.678       2.239       1.863       1.490       1.088      0.7177      0.4761      0.2640      0.1099       0.000    
  18    10.00       9.952       9.878       9.771       9.615       9.494       9.421       9.324       9.214       9.052    
        8.813       8.623       8.451       8.193       7.902       7.600       7.220       6.773       6.490       6.304    
        6.158       6.031       5.918       5.756       5.631       5.590       5.570       5.543       5.477       5.387    
        5.299       5.203       5.074       4.864       4.572       4.280       4.042       3.855       3.531       3.060    
        2.582       2.124       1.746       1.396       1.010      0.6621      0.4025      0.2206      0.1030       0.000    
  19    10.00       9.935       9.850       9.695       9.540       9.469       9.378       9.253       9.119       8.935    
        8.722       8.535       8.262       7.894       7.589       7.290       6.880       6.514       6.333       6.211    
        6.057       5.898       5.769       5.633       5.565       5.543       5.519       5.473       5.398       5.322    
        5.238       5.133       4.966       4.752       4.513       4.266       4.062       3.823       3.366       2.903    
        2.525       2.057       1.648       1.307      0.9282      0.5968      0.3623      0.2094      0.1048       0.000    
  20    10.00       9.916       9.787       9.625       9.511       9.431       9.330       9.196       9.037       8.867    
        8.644       8.365       7.995       7.656       7.385       7.026       6.651       6.463       6.310       6.144    
        5.976       5.810       5.653       5.552       5.505       5.467       5.415       5.368       5.298       5.231    
        5.151       5.048       4.882       4.693       4.479       4.269       4.053       3.683       3.204       2.811    
        2.393       1.939       1.576       1.235      0.8827      0.5363      0.3146      0.2113      0.1067       0.000    
  21    10.00       9.868       9.735       9.603       9.484       9.394       9.283       9.113       8.952       8.786    
        8.498       8.144       7.796       7.516       7.224       6.879       6.610       6.445       6.270       6.089    
        5.885       5.696       5.558       5.454       5.377       5.310       5.269       5.227       5.156       5.105    
        5.048       4.943       4.802       4.639       4.449       4.248       3.945       3.570       3.155       2.688    
        2.267       1.841       1.528       1.215      0.7670      0.4527      0.3223      0.2351      0.1130       0.000    
  22    10.00       9.849       9.692       9.564       9.463       9.355       9.193       9.023       8.880       8.661    
        8.355       7.986       7.683       7.450       7.130       6.811       6.584       6.415       6.241       6.022    
        5.788       5.596       5.418       5.259       5.156       5.108       5.076       5.023       4.998       4.968    
        4.924       4.842       4.736       4.585       4.409       4.214       3.898       3.523       3.034       2.574    
        2.210       1.824       1.476       1.012      0.6308      0.4535      0.3408      0.2266      8.9956E-02   0.000    
  23    10.00       9.815       9.663       9.556       9.446       9.285       9.102       8.969       8.787       8.558    
        8.247       7.917       7.684       7.389       7.044       6.766       6.574       6.418       6.222       5.960    
        5.710       5.485       5.249       4.967       4.718       4.671       4.745       4.781       4.827       4.839    
        4.818       4.760       4.667       4.546       4.377       4.172       3.877       3.410       2.895       2.516    
        2.167       1.728       1.228      0.8256      0.6147      0.4650      0.3400      0.2156      0.1004       0.000    
  24    10.00       9.790       9.679       9.557       9.401       9.224       9.080       8.934       8.755       8.491    
        8.204       7.948       7.691       7.337       6.971       6.751       6.593       6.431       6.195       5.931    
        5.682       5.424       5.063       4.417       3.443       3.775       4.223       4.505       4.653       4.710    
        4.721       4.682       4.614       4.490       4.327       4.120       3.754       3.260       2.822       2.419    
        1.995       1.530       1.087      0.7868      0.6110      0.4618      0.3318      0.2514      0.1383       0.000    
  25    10.00       9.817       9.700       9.552       9.389       9.230       9.082       8.944       8.725       8.462    
        8.221       7.974       7.661       7.271       6.988       6.787       6.611       6.421       6.201       5.956    
        5.688       5.432       4.774       3.396      0.2648       2.812       3.776       4.258       4.510       4.620    
        4.646       4.625       4.556       4.411       4.238       3.986       3.606       3.132       2.735       2.299    
        1.810       1.371       1.010      0.7776      0.6350      0.4963      0.3625      0.2671      0.1743       0.000    
  26    10.00       9.843       9.733       9.574       9.406       9.266       9.113       8.939       8.714       8.510    
        8.302       7.975       7.579       7.247       7.041       6.861       6.652       6.405       6.172       5.962    
        5.756       5.475       4.870       3.873       2.822       3.342       3.902       4.252       4.465       4.581    
        4.602       4.577       4.489       4.347       4.180       3.906       3.408       2.970       2.636       2.103    
        1.572       1.211      0.9989      0.8429      0.6915      0.5378      0.3986      0.2919      0.1743       0.000    
  27    10.00       9.878       9.744       9.608       9.458       9.297       9.145       8.976       8.775       8.580    
        8.303       7.917       7.574       7.304       7.123       6.921       6.647       6.376       6.186       6.020    
        5.848       5.559       5.107       4.559       3.977       4.000       4.198       4.381       4.515       4.579    
        4.581       4.546       4.459       4.314       4.088       3.659       3.189       2.845       2.331       1.809    
        1.429       1.194       1.040      0.9081      0.7687      0.5915      0.4258      0.3187      0.2142       0.000    
  28    10.00       9.889       9.775       9.646       9.509       9.357       9.200       9.030       8.841       8.616    
        8.276       7.926       7.629       7.371       7.183       6.979       6.745       6.481       6.230       6.065    
        5.912       5.706       5.406       4.999       4.634       4.470       4.483       4.565       4.595       4.607    
        4.580       4.527       4.423       4.218       3.882       3.433       3.034       2.563       2.057       1.711    
        1.435       1.242       1.090      0.9590      0.8157      0.6461      0.4822      0.3623      0.2209       0.000    
  29    10.00       9.894       9.786       9.689       9.558       9.418       9.267       9.097       8.898       8.596    
        8.262       7.956       7.674       7.462       7.246       7.026       6.812       6.601       6.360       6.149    
        5.985       5.812       5.606       5.357       5.026       4.848       4.779       4.747       4.721       4.661    
        4.587       4.481       4.346       4.065       3.663       3.259       2.845       2.371       1.986       1.736    
        1.512       1.299       1.133       1.005      0.8654      0.6917      0.5228      0.3827      0.2231       0.000    
  30    10.00       9.903       9.814       9.728       9.614       9.486       9.352       9.163       8.914       8.608    
        8.263       7.953       7.717       7.507       7.294       7.082       6.903       6.724       6.507       6.282    
        6.087       5.928       5.751       5.572       5.358       5.162       5.079       4.951       4.862       4.730    
        4.575       4.396       4.200       3.901       3.574       3.192       2.765       2.331       2.050       1.821    
        1.566       1.357       1.198       1.045      0.8878      0.7340      0.5570      0.3987      0.2409       0.000    
  31    10.00       9.919       9.842       9.762       9.679       9.579       9.432       9.210       8.922       8.604    
        8.272       7.983       7.760       7.545       7.356       7.159       6.974       6.837       6.628       6.412    
        6.226       6.061       5.904       5.737       5.595       5.439       5.287       5.137       4.965       4.772    
        4.537       4.304       4.099       3.862       3.536       3.139       2.732       2.376       2.149       1.943    
        1.679       1.438       1.251       1.090      0.9332      0.7702      0.5928      0.4259      0.2344       0.000    
  32    10.00       9.932       9.873       9.803       9.723       9.631       9.486       9.234       8.964       8.675    
        8.325       8.026       7.803       7.602       7.411       7.245       7.082       6.910       6.741       6.537    
        6.340       6.161       6.004       5.844       5.716       5.608       5.438       5.250       5.014       4.754    
        4.506       4.282       4.066       3.838       3.527       3.169       2.828       2.516       2.273       2.041    
        1.795       1.543       1.344       1.155      0.9761      0.8287      0.6470      0.4263      0.2117       0.000    
  33    10.00       9.941       9.893       9.837       9.759       9.655       9.470       9.226       9.001       8.733    
        8.394       8.097       7.868       7.648       7.470       7.329       7.186       7.015       6.828       6.638    
        6.434       6.241       6.056       5.903       5.800       5.692       5.509       5.266       5.020       4.776    
        4.535       4.331       4.114       3.828       3.535       3.211       2.919       2.668       2.414       2.160    
        1.930       1.691       1.472       1.274       1.075      0.8997      0.6955      0.4352      0.2050       0.000    
  34    10.00       9.947       9.915       9.866       9.769       9.626       9.447       9.268       9.036       8.746    
        8.447       8.159       7.913       7.693       7.534       7.424       7.272       7.099       6.895       6.714    
        6.525       6.298       6.114       5.973       5.867       5.729       5.512       5.296       5.045       4.777    
        4.574       4.396       4.196       3.914       3.613       3.317       3.047       2.821       2.560       2.304    
        2.084       1.864       1.631       1.429       1.217       1.011      0.7514      0.4827      0.2545       0.000    
  35    10.00       9.956       9.919       9.857       9.737       9.586       9.455       9.303       9.090       8.778    
        8.460       8.192       7.944       7.755       7.621       7.498       7.339       7.147       6.949       6.747    
        6.562       6.358       6.170       6.036       5.920       5.784       5.558       5.297       5.030       4.777    
        4.625       4.454       4.239       4.023       3.765       3.451       3.178       2.994       2.729       2.442    
        2.235       2.015       1.793       1.594       1.358       1.128      0.8661      0.5781      0.2889       0.000    
  36    10.00       9.953       9.901       9.831       9.712       9.568       9.451       9.308       9.094       8.802    
        8.471       8.180       7.994       7.845       7.719       7.566       7.375       7.186       6.973       6.718    
        6.522       6.359       6.198       6.081       5.969       5.805       5.561       5.291       5.017       4.790    
        4.643       4.497       4.298       4.093       3.873       3.586       3.313       3.111       2.879       2.569    
        2.336       2.113       1.887       1.723       1.495       1.240      0.9791      0.6782      0.3449       0.000    
  37    10.00       9.939       9.881       9.804       9.684       9.552       9.420       9.282       9.085       8.771    
        8.435       8.196       8.081       7.940       7.774       7.619       7.399       7.169       6.903       6.645    
        6.498       6.368       6.216       6.094       5.962       5.764       5.536       5.252       5.011       4.843    
        4.693       4.532       4.328       4.148       3.919       3.645       3.429       3.233       2.974       2.666    
        2.388       2.170       1.990       1.806       1.590       1.353       1.103      0.7655      0.4147       0.000    
  38    10.00       9.932       9.856       9.775       9.663       9.534       9.388       9.243       9.034       8.742    
        8.485       8.293       8.147       8.018       7.832       7.592       7.340       7.059       6.770       6.607    
        6.493       6.333       6.186       6.082       5.937       5.725       5.450       5.195       5.056       4.919    
        4.753       4.571       4.375       4.191       3.966       3.714       3.521       3.320       3.013       2.690    
        2.448       2.247       2.064       1.880       1.688       1.459       1.200      0.8758      0.4544       0.000    
  39    10.00       9.913       9.837       9.755       9.646       9.501       9.343       9.190       8.998       8.763    
        8.562       8.419       8.255       8.070       7.793       7.481       7.167       6.865       6.692       6.589    
        6.432       6.260       6.153       6.056       5.918       5.673       5.402       5.236       5.112       4.969    
        4.790       4.616       4.418       4.221       4.029       3.821       3.597       3.364       3.047       2.729    
        2.475       2.273       2.131       1.984       1.775       1.542       1.281      0.9279      0.4544       0.000    
  40    10.00       9.899       9.824       9.742       9.631       9.479       9.316       9.161       8.998       8.802    
        8.636       8.513       8.307       8.006       7.653       7.302       6.985       6.781       6.668       6.541    
        6.367       6.219       6.125       6.006       5.845       5.647       5.468       5.302       5.155       5.020    
        4.854       4.660       4.458       4.272       4.095       3.884       3.643       3.408       3.064       2.716    
        2.487       2.319       2.171       2.045       1.834       1.574       1.334      0.9641      0.4760       0.000    
  41    10.00       9.906       9.818       9.727       9.604       9.466       9.323       9.184       9.028       8.852    
        8.695       8.542       8.260       7.875       7.485       7.168       6.921       6.749       6.632       6.487    
        6.310       6.185       6.078       5.952       5.811       5.669       5.537       5.378       5.202       5.046    
        4.897       4.711       4.507       4.338       4.152       3.946       3.700       3.372       2.991       2.724    
        2.537       2.362       2.226       2.067       1.844       1.587       1.375       1.023      0.5240       0.000    
  42    10.00       9.909       9.811       9.727       9.619       9.491       9.348       9.192       9.052       8.917    
        8.726       8.450       8.094       7.697       7.346       7.104       6.891       6.729       6.592       6.419    
        6.257       6.140       6.032       5.942       5.823       5.719       5.596       5.413       5.225       5.086    
        4.954       4.754       4.534       4.375       4.217       3.985       3.669       3.277       2.938       2.735    
        2.586       2.437       2.268       2.062       1.831       1.624       1.410       1.066      0.5482       0.000    
  43    10.00       9.910       9.820       9.734       9.648       9.533       9.390       9.236       9.083       8.888    
        8.612       8.293       7.929       7.548       7.277       7.074       6.873       6.704       6.539       6.367    
        6.216       6.107       6.028       5.958       5.854       5.741       5.621       5.442       5.274       5.160    
        4.993       4.773       4.567       4.410       4.227       3.943       3.572       3.194       2.959       2.798    
        2.641       2.480       2.274       2.051       1.840       1.640       1.448       1.062      0.4785       0.000    
  44    10.00       9.904       9.822       9.747       9.652       9.565       9.443       9.255       9.047       8.775    
        8.495       8.160       7.762       7.485       7.277       7.053       6.834       6.641       6.461       6.309    
        6.201       6.115       6.040       5.968       5.878       5.763       5.622       5.481       5.351       5.208    
        5.047       4.848       4.615       4.393       4.179       3.890       3.502       3.176       2.987       2.832    
        2.681       2.503       2.296       2.098       1.877       1.655       1.404      0.9095      0.4019       0.000    
  45    10.00       9.904       9.836       9.750       9.661       9.582       9.404       9.189       8.944       8.676    
        8.440       8.038       7.669       7.463       7.250       7.004       6.757       6.559       6.402       6.293    
        6.216       6.141       6.062       5.976       5.880       5.774       5.656       5.537       5.430       5.283    
        5.090       4.877       4.641       4.374       4.130       3.816       3.452       3.195       3.040       2.884    
        2.688       2.483       2.302       2.122       1.929       1.690       1.266      0.7623      0.3861       0.000    
  46    10.00       9.921       9.848       9.757       9.658       9.509       9.321       9.142       8.919       8.656    
        8.317       7.947       7.651       7.393       7.175       6.933       6.686       6.532       6.414       6.314    
        6.244       6.173       6.081       5.977       5.882       5.789       5.692       5.586       5.480       5.344    
        5.165       4.942       4.680       4.378       4.038       3.701       3.436       3.260       3.088       2.909    
        2.683       2.470       2.289       2.145       1.938       1.604       1.135      0.7181      0.3648       0.000    
  47    10.00       9.938       9.871       9.775       9.605       9.424       9.264       9.111       8.910       8.582    
        8.216       7.873       7.588       7.372       7.138       6.870       6.657       6.520       6.427       6.345    
        6.269       6.187       6.096       5.994       5.900       5.819       5.734       5.629       5.506       5.371    
        5.213       5.015       4.677       4.276       3.957       3.709       3.478       3.328       3.170       2.920    
        2.652       2.427       2.259       2.142       1.882       1.484       1.054      0.6909      0.3546       0.000    
  48    10.00       9.946       9.874       9.731       9.559       9.409       9.237       9.083       8.869       8.524    
        8.125       7.814       7.583       7.325       7.053       6.813       6.652       6.519       6.430       6.368    
        6.292       6.194       6.094       6.005       5.930       5.862       5.780       5.664       5.518       5.362    
        5.198       4.971       4.621       4.293       4.014       3.767       3.551       3.381       3.176       2.878    
        2.594       2.414       2.273       2.053       1.706       1.350       1.006      0.6958      0.3743       0.000    
  49    10.00       9.943       9.841       9.712       9.572       9.398       9.225       9.051       8.786       8.420    
        8.077       7.786       7.507       7.263       7.053       6.827       6.621       6.500       6.441       6.382    
        6.311       6.200       6.088       6.015       5.953       5.899       5.807       5.666       5.502       5.352    
        5.180       4.903       4.607       4.387       4.132       3.842       3.581       3.375       3.139       2.821    
        2.591       2.434       2.224       1.893       1.585       1.294      0.9945      0.6957      0.3731       0.000    
  50    10.00       9.935       9.829       9.698       9.570       9.408       9.214       8.998       8.719       8.429    
        8.071       7.706       7.448       7.253       7.076       6.821       6.592       6.502       6.449       6.390    
        6.319       6.204       6.090       6.019       5.967       5.916       5.813       5.651       5.485       5.342    
        5.166       4.881       4.652       4.454       4.187       3.899       3.626       3.344       3.022       2.755    
        2.637       2.458       2.135       1.803       1.573       1.292       1.008      0.6814      0.3038       0.000    

 HEAD WILL BE SAVED ON UNIT   51 AT END OF TIME STEP  43, STRESS PERIOD    2

 DRAWDOWN WILL BE SAVED ON UNIT   52 AT END OF TIME STEP  43, STRESS PERIOD    2
1
  VOLUMETRIC BUDGET FOR ENTIRE MODEL AT END OF TIME STEP 43 IN STRESS PERIOD   2
  ------------------------------------------------------------------------------

     CUMULATIVE VOLUMES      L**3       RATES FOR THIS TIME STEP      L**3/T
     ------------------                 ------------------------

           IN:                                      IN:
           ---                                      ---
             STORAGE =       21236.8496               STORAGE =         475.5211
       CONSTANT HEAD =       26511.8223         CONSTANT HEAD =         618.8239
               WELLS =           0.0000                 WELLS =           0.0000

            TOTAL IN =       47748.6719              TOTAL IN =        1094.3450

          OUT:                                     OUT:
          ----                                     ----
             STORAGE =       9.4320E-03               STORAGE =           0.0000
       CONSTANT HEAD =       26248.6582         CONSTANT HEAD =         594.3453
               WELLS =       21500.0000                 WELLS =         500.0000

           TOTAL OUT =       47748.6680             TOTAL OUT =        1094.3452

            IN - OUT =       3.9063E-03              IN - OUT =      -2.4414E-04

 PERCENT DISCREPANCY =           0.00     PERCENT DISCREPANCY =           0.00






          TIME SUMMARY AT END OF TIME STEP  43 IN STRESS PERIOD    2
                    SECONDS     MINUTES      HOURS       DAYS        YEARS
                    -----------------------------------------------------------
   TIME STEP LENGTH  86400.      1440.0      24.000      1.0000     2.73785E-03
 STRESS PERIOD TIME 3.71520E+06  61920.      1032.0      43.000     0.11773    
         TOTAL TIME 3.80160E+06  63360.      1056.0      44.000     0.12047    
1
 
 SOLVING FOR HEAD 

 OUTPUT CONTROL FOR STRESS PERIOD    2   TIME STEP  44
    SAVE HEAD FOR ALL LAYERS
    SAVE DRAWDOWN FOR ALL LAYERS
    SAVE BUDGET
    PRINT HEAD FOR ALL LAYERS
    PRINT BUDGET
 UBDSV1 SAVING "         STORAGE" ON UNIT  53 AT TIME STEP 44, STRESS PERIOD   2
 UBDSV2 SAVING "   CONSTANT HEAD" ON UNIT  53 AT TIME STEP 44, STRESS PERIOD   2
 UBDSV1 SAVING "FLOW RIGHT FACE " ON UNIT  53 AT TIME STEP 44, STRESS PERIOD   2
 UBDSV1 SAVING "FLOW FRONT FACE " ON UNIT  53 AT TIME STEP 44, STRESS PERIOD   2
1
              HEAD IN LAYER   1 AT END OF TIME STEP  44 IN STRESS PERIOD    2
  ---------------------------------------------------------------------------

            1           2           3           4           5           6           7           8           9          10
           11          12          13          14          15          16          17          18          19          20
           21          22          23          24          25          26          27          28          29          30
           31          32          33          34          35          36          37          38          39          40
           41          42          43          44          45          46          47          48          49          50
 ........................................................................................................................
   1    10.00       9.958       9.898       9.830       9.764       9.688       9.616       9.546       9.457       9.370    
        9.302       9.236       9.168       9.102       8.995       8.866       8.722       8.608       8.550       8.481    
        8.400       8.335       8.271       8.197       8.098       7.902       7.682       7.527       7.376       7.234    
        7.048       6.751       6.371       5.949       5.511       5.044       4.583       4.199       3.697       3.151    
        2.703       2.274       1.799       1.401       1.156      0.9476      0.7830      0.6637      0.4455       0.000    
   2    10.00       9.957       9.903       9.834       9.767       9.700       9.629       9.536       9.439       9.367    
        9.309       9.252       9.195       9.113       8.990       8.855       8.720       8.608       8.548       8.471    
        8.390       8.341       8.289       8.212       8.086       7.895       7.695       7.536       7.383       7.244    
        7.037       6.726       6.328       5.847       5.379       4.928       4.528       4.157       3.646       3.118    
        2.669       2.187       1.754       1.441       1.210       1.032      0.8276      0.6460      0.3604       0.000    
   3    10.00       9.951       9.897       9.836       9.777       9.709       9.618       9.520       9.451       9.387    
        9.322       9.270       9.220       9.140       9.015       8.849       8.701       8.610       8.540       8.462    
        8.395       8.344       8.291       8.187       8.051       7.881       7.707       7.582       7.404       7.223    
        6.963       6.595       6.139       5.673       5.259       4.838       4.447       4.048       3.518       3.029    
        2.643       2.200       1.803       1.517       1.288       1.103      0.8610      0.5773      0.2618       0.000    
   4    10.00       9.951       9.898       9.839       9.772       9.693       9.600       9.525       9.465       9.399    
        9.342       9.298       9.242       9.153       9.031       8.854       8.700       8.615       8.536       8.466    
        8.395       8.331       8.263       8.155       8.020       7.868       7.710       7.556       7.399       7.193    
        6.867       6.380       5.896       5.542       5.197       4.763       4.292       3.825       3.402       3.032    
        2.672       2.260       1.887       1.629       1.371       1.136      0.8365      0.5193      0.2488       0.000    
   5    10.00       9.948       9.894       9.827       9.760       9.687       9.602       9.537       9.476       9.414    
        9.364       9.322       9.249       9.144       9.009       8.848       8.718       8.624       8.546       8.453    
        8.367       8.298       8.216       8.110       7.989       7.833       7.676       7.534       7.376       7.126    
        6.658       6.113       5.725       5.448       5.107       4.637       4.151       3.727       3.410       3.076    
        2.722       2.344       1.974       1.734       1.457       1.118      0.7616      0.4632      0.2330       0.000    
   6    10.00       9.940       9.877       9.821       9.759       9.680       9.609       9.553       9.489       9.430    
        9.383       9.332       9.239       9.121       9.004       8.868       8.737       8.629       8.526       8.418    
        8.331       8.251       8.179       8.083       7.929       7.776       7.650       7.505       7.285       6.907    
        6.390       5.896       5.574       5.335       5.026       4.561       4.078       3.720       3.453       3.151    
        2.827       2.494       2.116       1.794       1.429       1.055      0.6727      0.3998      0.2201       0.000    
   7    10.00       9.929       9.867       9.815       9.751       9.685       9.622       9.569       9.510       9.452    
        9.394       9.316       9.215       9.104       8.992       8.886       8.749       8.602       8.483       8.377    
        8.286       8.208       8.146       8.026       7.869       7.739       7.611       7.417       7.064       6.580    
        6.087       5.687       5.468       5.254       4.896       4.461       4.136       3.790       3.498       3.301    
        2.994       2.637       2.193       1.734       1.325      0.9161      0.5797      0.4027      0.2073       0.000    
   8    10.00       9.928       9.873       9.814       9.749       9.691       9.635       9.582       9.527       9.472    
        9.396       9.297       9.197       9.092       8.988       8.869       8.697       8.543       8.445       8.343    
        8.242       8.175       8.082       7.954       7.817       7.681       7.466       7.164       6.720       6.295    
        5.925       5.616       5.415       5.170       4.788       4.429       4.136       3.881       3.654       3.427    
        3.129       2.681       2.135       1.646       1.220      0.8579      0.6138      0.3946      0.1892       0.000    
   9    10.00       9.940       9.872       9.808       9.760       9.711       9.656       9.599       9.538       9.480    
        9.391       9.279       9.170       9.065       8.955       8.814       8.647       8.505       8.399       8.295    
        8.205       8.118       7.993       7.871       7.744       7.577       7.267       6.863       6.447       6.136    
        5.832       5.575       5.354       5.049       4.695       4.394       4.171       3.982       3.780       3.532    
        3.175       2.686       2.130       1.644       1.229      0.8770      0.6194      0.3981      0.2036       0.000    
  10    10.00       9.937       9.866       9.813       9.769       9.722       9.672       9.623       9.553       9.466    
        9.359       9.242       9.138       9.039       8.926       8.752       8.577       8.454       8.356       8.258    
        8.173       8.054       7.915       7.777       7.630       7.390       6.994       6.574       6.218       5.969    
        5.772       5.554       5.287       4.978       4.647       4.393       4.223       4.059       3.841       3.557    
        3.148       2.642       2.134       1.719       1.330      0.9654      0.6389      0.4229      0.2273       0.000    
  11    10.00       9.924       9.866       9.823       9.779       9.739       9.693       9.625       9.530       9.432    
        9.325       9.210       9.114       8.996       8.841       8.676       8.531       8.422       8.332       8.232    
        8.106       7.954       7.768       7.610       7.365       7.030       6.692       6.381       6.081       5.894    
        5.742       5.466       5.175       4.918       4.664       4.468       4.291       4.082       3.814       3.471    
        3.087       2.696       2.209       1.800       1.430       1.068      0.7180      0.4154      0.1742       0.000    
  12    10.00       9.926       9.873       9.827       9.790       9.748       9.696       9.601       9.490       9.397    
        9.298       9.178       9.061       8.921       8.785       8.633       8.493       8.398       8.299       8.162    
        7.954       7.728       7.509       7.289       6.961       6.707       6.513       6.210       5.961       5.817    
        5.644       5.390       5.147       4.909       4.725       4.538       4.315       4.062       3.736       3.392    
        3.068       2.714       2.245       1.843       1.495       1.116      0.7556      0.3919      0.1301       0.000    
  13    10.00       9.941       9.890       9.841       9.798       9.748       9.664       9.556       9.452       9.357    
        9.246       9.129       9.007       8.861       8.712       8.569       8.467       8.349       8.219       7.952    
        7.639       7.400       7.156       6.864       6.612       6.488       6.270       6.003       5.864       5.732    
        5.527       5.306       5.114       4.934       4.776       4.603       4.337       3.996       3.684       3.360    
        3.050       2.685       2.182       1.809       1.510       1.107      0.6947      0.3385      0.1036       0.000    
  14    10.00       9.954       9.911       9.859       9.799       9.718       9.609       9.501       9.408       9.303    
        9.189       9.079       8.942       8.789       8.657       8.532       8.380       8.228       7.973       7.575    
        7.274       7.041       6.718       6.488       6.368       6.255       6.040       5.873       5.741       5.605    
        5.426       5.264       5.126       4.969       4.798       4.627       4.329       3.958       3.636       3.304    
        2.987       2.533       2.055       1.762       1.422       1.060      0.6958      0.3135      8.9288E-02   0.000    
  15    10.00       9.963       9.918       9.862       9.789       9.671       9.540       9.445       9.357       9.254    
        9.165       9.052       8.877       8.703       8.581       8.391       8.197       8.037       7.648       7.212    
        6.939       6.629       6.354       6.266       6.200       6.060       5.877       5.721       5.618       5.511    
        5.373       5.253       5.139       5.001       4.832       4.625       4.279       3.871       3.533       3.230    
        2.891       2.434       2.058       1.692       1.289      0.9702      0.6219      0.2875      9.7263E-02   0.000    
  16    10.00       9.970       9.922       9.851       9.746       9.606       9.489       9.413       9.336       9.232    
        9.124       8.961       8.743       8.575       8.401       8.181       8.051       7.730       7.182       6.799    
        6.557       6.289       6.189       6.136       6.019       5.838       5.695       5.615       5.561       5.469    
        5.352       5.243       5.147       5.009       4.807       4.529       4.138       3.787       3.520       3.201    
        2.809       2.360       1.956       1.559       1.212      0.8594      0.5580      0.2904      0.1037       0.000    
  17    10.00       9.966       9.908       9.815       9.695       9.551       9.447       9.381       9.290       9.181    
        8.990       8.761       8.578       8.407       8.183       7.964       7.692       7.180       6.720       6.479    
        6.286       6.142       6.071       5.951       5.771       5.643       5.599       5.571       5.517       5.423    
        5.320       5.225       5.124       4.987       4.703       4.342       4.039       3.811       3.553       3.170    
        2.674       2.236       1.861       1.489       1.087      0.7170      0.4757      0.2637      0.1098       0.000    
  18    10.00       9.951       9.877       9.770       9.614       9.492       9.419       9.322       9.211       9.048    
        8.807       8.616       8.444       8.185       7.892       7.589       7.207       6.758       6.475       6.288    
        6.141       6.015       5.901       5.740       5.614       5.573       5.554       5.527       5.462       5.372    
        5.285       5.189       5.061       4.852       4.561       4.270       4.033       3.847       3.525       3.055    
        2.578       2.121       1.744       1.394       1.009      0.6615      0.4021      0.2204      0.1029       0.000    
  19    10.00       9.935       9.850       9.693       9.538       9.467       9.376       9.250       9.115       8.931    
        8.716       8.528       8.253       7.883       7.577       7.277       6.865       6.498       6.317       6.195    
        6.040       5.881       5.753       5.616       5.548       5.527       5.502       5.456       5.382       5.306    
        5.223       5.119       4.953       4.739       4.502       4.256       4.053       3.815       3.360       2.898    
        2.521       2.054       1.646       1.305      0.9273      0.5962      0.3619      0.2092      0.1047       0.000    
  20    10.00       9.916       9.786       9.624       9.510       9.429       9.327       9.193       9.033       8.861    
        8.638       8.357       7.985       7.644       7.372       7.012       6.635       6.447       6.293       6.127    
        5.959       5.793       5.636       5.534       5.488       5.450       5.398       5.351       5.282       5.214    
        5.135       5.032       4.868       4.680       4.467       4.258       4.044       3.675       3.198       2.806    
        2.389       1.937       1.574       1.234      0.8818      0.5357      0.3143      0.2111      0.1066       0.000    
  21    10.00       9.868       9.734       9.601       9.482       9.391       9.280       9.109       8.947       8.781    
        8.490       8.135       7.784       7.503       7.210       6.864       6.594       6.429       6.254       6.072    
        5.868       5.679       5.540       5.437       5.360       5.293       5.251       5.210       5.139       5.088    
        5.032       4.927       4.787       4.625       4.437       4.236       3.935       3.562       3.148       2.683    
        2.264       1.839       1.526       1.213      0.7662      0.4523      0.3220      0.2349      0.1129       0.000    
  22    10.00       9.848       9.691       9.562       9.461       9.352       9.189       9.019       8.874       8.654    
        8.347       7.975       7.671       7.437       7.116       6.796       6.568       6.398       6.224       6.005    
        5.770       5.579       5.400       5.241       5.138       5.090       5.058       5.005       4.980       4.951    
        4.907       4.825       4.720       4.571       4.396       4.202       3.888       3.515       3.028       2.569    
        2.207       1.822       1.474       1.011      0.6302      0.4531      0.3405      0.2264      8.9881E-02   0.000    
  23    10.00       9.815       9.661       9.554       9.444       9.282       9.098       8.964       8.781       8.551    
        8.237       7.906       7.672       7.376       7.029       6.750       6.558       6.402       6.205       5.943    
        5.692       5.467       5.231       4.949       4.699       4.652       4.727       4.762       4.808       4.821    
        4.800       4.743       4.651       4.531       4.363       4.160       3.867       3.402       2.889       2.511    
        2.164       1.725       1.226      0.8248      0.6142      0.4646      0.3397      0.2154      0.1003       0.000    
  24    10.00       9.789       9.678       9.555       9.399       9.220       9.075       8.929       8.749       8.484    
        8.195       7.938       7.679       7.323       6.957       6.736       6.577       6.415       6.178       5.913    
        5.665       5.406       5.045       4.398       3.424       3.755       4.204       4.486       4.634       4.692    
        4.703       4.664       4.598       4.475       4.313       4.108       3.744       3.253       2.816       2.415    
        1.992       1.528       1.086      0.7860      0.6105      0.4615      0.3316      0.2512      0.1382       0.000    
  25    10.00       9.816       9.699       9.550       9.386       9.226       9.078       8.939       8.718       8.454    
        8.211       7.964       7.649       7.257       6.973       6.772       6.595       6.405       6.184       5.939    
        5.671       5.413       4.755       3.377      0.2437       2.792       3.756       4.238       4.490       4.602    
        4.628       4.607       4.539       4.396       4.224       3.974       3.597       3.124       2.730       2.295    
        1.807       1.370       1.010      0.7769      0.6345      0.4959      0.3623      0.2669      0.1742       0.000    
  26    10.00       9.843       9.732       9.572       9.403       9.263       9.109       8.934       8.708       8.502    
        8.294       7.965       7.567       7.234       7.026       6.846       6.636       6.389       6.155       5.945    
        5.738       5.457       4.851       3.853       2.802       3.322       3.882       4.232       4.446       4.562    
        4.584       4.560       4.473       4.332       4.166       3.894       3.399       2.964       2.631       2.100    
        1.571       1.209      0.9981      0.8422      0.6910      0.5374      0.3984      0.2917      0.1742       0.000    
  27    10.00       9.877       9.743       9.606       9.455       9.293       9.141       8.971       8.769       8.573    
        8.294       7.906       7.562       7.291       7.109       6.906       6.631       6.360       6.169       6.003    
        5.831       5.541       5.089       4.540       3.957       3.980       4.178       4.361       4.496       4.560    
        4.563       4.529       4.443       4.299       4.075       3.649       3.181       2.839       2.327       1.806    
        1.428       1.193       1.039      0.9074      0.7681      0.5911      0.4255      0.3185      0.2140       0.000    
  28    10.00       9.888       9.774       9.644       9.507       9.354       9.196       9.025       8.836       8.609    
        8.267       7.916       7.617       7.358       7.170       6.965       6.730       6.465       6.213       6.048    
        5.895       5.688       5.388       4.981       4.614       4.451       4.463       4.545       4.576       4.588    
        4.562       4.510       4.407       4.204       3.870       3.424       3.027       2.559       2.054       1.709    
        1.434       1.241       1.089      0.9583      0.8151      0.6457      0.4819      0.3621      0.2207       0.000    
  29    10.00       9.893       9.785       9.688       9.556       9.416       9.264       9.093       8.893       8.589    
        8.253       7.946       7.663       7.449       7.233       7.012       6.798       6.586       6.344       6.132    
        5.968       5.794       5.588       5.339       5.007       4.828       4.760       4.728       4.702       4.643    
        4.570       4.465       4.331       4.054       3.654       3.252       2.839       2.368       1.984       1.734    
        1.510       1.298       1.132       1.004      0.8648      0.6912      0.5225      0.3825      0.2229       0.000    
  30    10.00       9.903       9.813       9.727       9.613       9.484       9.349       9.159       8.909       8.601    
        8.255       7.943       7.706       7.495       7.282       7.068       6.889       6.709       6.492       6.265    
        6.071       5.911       5.733       5.554       5.340       5.144       5.061       4.933       4.844       4.713    
        4.559       4.383       4.188       3.892       3.566       3.187       2.761       2.328       2.047       1.819    
        1.565       1.356       1.197       1.044      0.8872      0.7335      0.5566      0.3985      0.2408       0.000    
  31    10.00       9.919       9.842       9.761       9.678       9.577       9.430       9.207       8.918       8.597    
        8.264       7.974       7.749       7.534       7.344       7.147       6.960       6.823       6.614       6.397    
        6.210       6.045       5.888       5.720       5.578       5.422       5.269       5.120       4.948       4.757    
        4.524       4.293       4.090       3.854       3.530       3.134       2.728       2.373       2.146       1.941    
        1.677       1.437       1.250       1.089      0.9326      0.7698      0.5924      0.4257      0.2343       0.000    
  32    10.00       9.932       9.873       9.802       9.721       9.630       9.484       9.231       8.960       8.669    
        8.318       8.017       7.794       7.591       7.400       7.233       7.070       6.897       6.727       6.522    
        6.325       6.145       5.988       5.829       5.700       5.592       5.422       5.234       5.000       4.742    
        4.496       4.273       4.058       3.831       3.521       3.165       2.824       2.514       2.271       2.039    
        1.794       1.542       1.343       1.155      0.9756      0.8283      0.6467      0.4261      0.2116       0.000    
  33    10.00       9.941       9.893       9.836       9.758       9.653       9.468       9.223       8.997       8.728    
        8.387       8.089       7.859       7.638       7.459       7.318       7.174       7.002       6.815       6.625    
        6.420       6.226       6.041       5.888       5.785       5.676       5.494       5.252       5.008       4.766    
        4.526       4.323       4.107       3.822       3.530       3.207       2.916       2.665       2.412       2.158    
        1.929       1.690       1.471       1.273       1.074      0.8994      0.6952      0.4351      0.2049       0.000    
  34    10.00       9.947       9.914       9.865       9.768       9.625       9.446       9.265       9.033       8.741    
        8.441       8.151       7.905       7.684       7.525       7.414       7.261       7.088       6.883       6.702    
        6.513       6.285       6.100       5.959       5.853       5.715       5.500       5.284       5.035       4.769    
        4.567       4.389       4.190       3.909       3.609       3.313       3.045       2.819       2.558       2.302    
        2.083       1.863       1.631       1.428       1.217       1.011      0.7512      0.4825      0.2544       0.000    
  35    10.00       9.956       9.919       9.856       9.736       9.584       9.454       9.300       9.087       8.773    
        8.454       8.185       7.936       7.747       7.612       7.488       7.329       7.136       6.938       6.736    
        6.551       6.347       6.158       6.025       5.908       5.773       5.547       5.288       5.022       4.770    
        4.619       4.448       4.235       4.019       3.762       3.448       3.176       2.992       2.728       2.441    
        2.234       2.014       1.793       1.593       1.357       1.128      0.8660      0.5780      0.2888       0.000    
  36    10.00       9.953       9.901       9.830       9.711       9.567       9.449       9.306       9.091       8.798    
        8.466       8.174       7.987       7.838       7.711       7.557       7.365       7.177       6.963       6.708    
        6.512       6.349       6.188       6.071       5.959       5.795       5.553       5.283       5.011       4.785    
        4.639       4.493       4.295       4.090       3.870       3.584       3.311       3.109       2.877       2.568    
        2.336       2.113       1.887       1.723       1.495       1.240      0.9789      0.6781      0.3449       0.000    
  37    10.00       9.939       9.880       9.804       9.683       9.551       9.419       9.280       9.083       8.767    
        8.430       8.191       8.076       7.933       7.767       7.612       7.391       7.161       6.894       6.637    
        6.490       6.360       6.208       6.085       5.954       5.756       5.530       5.247       5.007       4.839    
        4.689       4.529       4.325       4.146       3.916       3.643       3.428       3.231       2.973       2.665    
        2.387       2.170       1.990       1.806       1.590       1.353       1.103      0.7654      0.4147       0.000    
  38    10.00       9.932       9.856       9.774       9.663       9.533       9.386       9.241       9.031       8.739    
        8.481       8.289       8.142       8.012       7.825       7.585       7.333       7.052       6.764       6.601    
        6.486       6.327       6.180       6.075       5.930       5.719       5.445       5.192       5.053       4.916    
        4.750       4.568       4.372       4.189       3.964       3.713       3.519       3.319       3.012       2.689    
        2.448       2.246       2.064       1.880       1.687       1.459       1.200      0.8757      0.4544       0.000    
  39    10.00       9.913       9.837       9.755       9.645       9.500       9.342       9.188       8.996       8.760    
        8.558       8.415       8.250       8.065       7.788       7.476       7.162       6.860       6.687       6.584    
        6.426       6.255       6.148       6.051       5.913       5.669       5.399       5.233       5.109       4.966    
        4.788       4.614       4.416       4.219       4.028       3.819       3.596       3.363       3.046       2.728    
        2.475       2.273       2.130       1.984       1.775       1.541       1.281      0.9279      0.4544       0.000    
  40    10.00       9.899       9.824       9.742       9.630       9.479       9.315       9.159       8.997       8.800    
        8.634       8.510       8.303       8.002       7.649       7.298       6.982       6.777       6.664       6.537    
        6.363       6.215       6.121       6.003       5.842       5.644       5.465       5.299       5.152       5.017    
        4.852       4.658       4.456       4.271       4.094       3.882       3.642       3.407       3.063       2.716    
        2.487       2.319       2.171       2.044       1.833       1.574       1.334      0.9640      0.4760       0.000    
  41    10.00       9.906       9.818       9.727       9.603       9.466       9.322       9.183       9.026       8.850    
        8.692       8.540       8.257       7.873       7.482       7.165       6.918       6.745       6.628       6.483    
        6.307       6.182       6.075       5.949       5.808       5.667       5.535       5.376       5.200       5.044    
        4.895       4.710       4.505       4.336       4.151       3.944       3.699       3.371       2.990       2.723    
        2.537       2.362       2.225       2.067       1.844       1.587       1.375       1.023      0.5239       0.000    
  42    10.00       9.909       9.811       9.726       9.619       9.490       9.347       9.191       9.051       8.915    
        8.724       8.448       8.092       7.695       7.344       7.101       6.888       6.727       6.590       6.417    
        6.254       6.138       6.029       5.939       5.821       5.717       5.594       5.411       5.224       5.085    
        4.953       4.752       4.533       4.374       4.215       3.984       3.668       3.276       2.937       2.734    
        2.586       2.437       2.268       2.062       1.831       1.624       1.410       1.065      0.5482       0.000    
  43    10.00       9.910       9.820       9.733       9.647       9.533       9.389       9.235       9.082       8.887    
        8.610       8.291       7.928       7.546       7.275       7.072       6.871       6.702       6.537       6.365    
        6.214       6.105       6.026       5.956       5.852       5.739       5.619       5.440       5.273       5.159    
        4.992       4.771       4.565       4.408       4.226       3.943       3.571       3.194       2.958       2.798    
        2.640       2.480       2.274       2.051       1.840       1.640       1.448       1.062      0.4784       0.000    
  44    10.00       9.904       9.822       9.747       9.652       9.564       9.442       9.254       9.046       8.774    
        8.494       8.158       7.761       7.484       7.275       7.051       6.832       6.639       6.460       6.307    
        6.199       6.113       6.039       5.966       5.877       5.762       5.621       5.480       5.350       5.206    
        5.046       4.846       4.614       4.392       4.178       3.889       3.501       3.175       2.987       2.831    
        2.680       2.503       2.296       2.098       1.877       1.655       1.404      0.9094      0.4019       0.000    
  45    10.00       9.904       9.836       9.750       9.661       9.582       9.403       9.188       8.943       8.675    
        8.439       8.037       7.668       7.462       7.248       7.003       6.755       6.558       6.401       6.292    
        6.215       6.139       6.061       5.974       5.878       5.773       5.655       5.535       5.429       5.282    
        5.089       4.876       4.640       4.373       4.129       3.815       3.451       3.194       3.039       2.883    
        2.688       2.483       2.302       2.122       1.929       1.690       1.266      0.7623      0.3861       0.000    
  46    10.00       9.921       9.848       9.756       9.658       9.509       9.320       9.142       8.918       8.655    
        8.316       7.947       7.650       7.392       7.174       6.932       6.685       6.531       6.413       6.313    
        6.242       6.172       6.079       5.976       5.881       5.787       5.691       5.585       5.478       5.343    
        5.163       4.941       4.679       4.377       4.038       3.700       3.435       3.260       3.087       2.908    
        2.683       2.469       2.289       2.145       1.938       1.604       1.135      0.7180      0.3648       0.000    
  47    10.00       9.938       9.871       9.775       9.605       9.424       9.263       9.110       8.910       8.582    
        8.216       7.872       7.587       7.371       7.137       6.868       6.656       6.519       6.426       6.343    
        6.268       6.186       6.094       5.993       5.898       5.818       5.732       5.627       5.505       5.370    
        5.212       5.014       4.676       4.275       3.957       3.708       3.478       3.328       3.169       2.920    
        2.651       2.427       2.259       2.142       1.882       1.484       1.054      0.6909      0.3546       0.000    
  48    10.00       9.945       9.874       9.731       9.559       9.409       9.237       9.083       8.868       8.523    
        8.124       7.813       7.582       7.324       7.052       6.811       6.651       6.518       6.428       6.367    
        6.291       6.193       6.092       6.004       5.929       5.860       5.779       5.662       5.517       5.361    
        5.197       4.970       4.620       4.292       4.013       3.766       3.551       3.381       3.176       2.878    
        2.594       2.414       2.273       2.053       1.706       1.350       1.006      0.6958      0.3743       0.000    
  49    10.00       9.943       9.840       9.712       9.571       9.397       9.224       9.051       8.785       8.420    
        8.076       7.785       7.507       7.262       7.052       6.826       6.619       6.499       6.440       6.380    
        6.309       6.198       6.087       6.013       5.951       5.897       5.806       5.665       5.500       5.351    
        5.179       4.902       4.607       4.386       4.131       3.842       3.581       3.375       3.139       2.821    
        2.591       2.434       2.224       1.893       1.585       1.294      0.9945      0.6957      0.3731       0.000    
  50    10.00       9.935       9.829       9.698       9.570       9.408       9.214       8.998       8.718       8.429    
        8.070       7.706       7.447       7.252       7.075       6.820       6.591       6.501       6.448       6.388    
        6.317       6.203       6.089       6.018       5.965       5.915       5.811       5.650       5.483       5.341    
        5.165       4.880       4.651       4.453       4.186       3.899       3.625       3.344       3.021       2.755    
        2.637       2.458       2.135       1.803       1.573       1.292       1.008      0.6814      0.3038       0.000    

 HEAD WILL BE SAVED ON UNIT   51 AT END OF TIME STEP  44, STRESS PERIOD    2

 DRAWDOWN WILL BE SAVED ON UNIT   52 AT END OF TIME STEP  44, STRESS PERIOD    2
1
  VOLUMETRIC BUDGET FOR ENTIRE MODEL AT END OF TIME STEP 44 IN STRESS PERIOD   2
  ------------------------------------------------------------------------------

     CUMULATIVE VOLUMES      L**3       RATES FOR THIS TIME STEP      L**3/T
     ------------------                 ------------------------

           IN:                                      IN:
           ---                                      ---
             STORAGE =       21710.7793               STORAGE =         473.9297
       CONSTANT HEAD =       27131.9805         CONSTANT HEAD =         620.1577
               WELLS =           0.0000                 WELLS =           0.0000

            TOTAL IN =       48842.7578              TOTAL IN =        1094.0874

          OUT:                                     OUT:
          ----                                     ----
             STORAGE =       9.4320E-03               STORAGE =           0.0000
       CONSTANT HEAD =       26842.7461         CONSTANT HEAD =         594.0878
               WELLS =       22000.0000                 WELLS =         500.0000

           TOTAL OUT =       48842.7539             TOTAL OUT =        1094.0878

            IN - OUT =       3.9063E-03              IN - OUT =      -3.6621E-04

 PERCENT DISCREPANCY =           0.00     PERCENT DISCREPANCY =           0.00






          TIME SUMMARY AT END OF TIME STEP  44 IN STRESS PERIOD    2
                    SECONDS     MINUTES      HOURS       DAYS        YEARS
                    -----------------------------------------------------------
   TIME STEP LENGTH  86400.      1440.0      24.000      1.0000     2.73785E-03
 STRESS PERIOD TIME 3.80160E+06  63360.      1056.0      44.000     0.12047    
         TOTAL TIME 3.88800E+06  64800.      1080.0      45.000     0.12320    
1
 
 SOLVING FOR HEAD 

 OUTPUT CONTROL FOR STRESS PERIOD    2   TIME STEP  45
    SAVE HEAD FOR ALL LAYERS
    SAVE DRAWDOWN FOR ALL LAYERS
    SAVE BUDGET
    PRINT HEAD FOR ALL LAYERS
    PRINT BUDGET
 UBDSV1 SAVING "         STORAGE" ON UNIT  53 AT TIME STEP 45, STRESS PERIOD   2
 UBDSV2 SAVING "   CONSTANT HEAD" ON UNIT  53 AT TIME STEP 45, STRESS PERIOD   2
 UBDSV1 SAVING "FLOW RIGHT FACE " ON UNIT  53 AT TIME STEP 45, STRESS PERIOD   2
 UBDSV1 SAVING "FLOW FRONT FACE " ON UNIT  53 AT TIME STEP 45, STRESS PERIOD   2
1
              HEAD IN LAYER   1 AT END OF TIME STEP  45 IN STRESS PERIOD    2
  ---------------------------------------------------------------------------

            1           2           3           4           5           6           7           8           9          10
           11          12          13          14          15          16          17          18          19          20
           21          22          23          24          25          26          27          28          29          30
           31          32          33          34          35          36          37          38          39          40
           41          42          43          44          45          46          47          48          49          50
 ........................................................................................................................
   1    10.00       9.958       9.898       9.829       9.763       9.687       9.616       9.545       9.456       9.369    
        9.301       9.234       9.166       9.100       8.992       8.863       8.719       8.605       8.547       8.478    
        8.397       8.332       8.268       8.193       8.094       7.899       7.678       7.524       7.373       7.231    
        7.045       6.748       6.368       5.946       5.508       5.042       4.581       4.197       3.695       3.150    
        2.702       2.273       1.798       1.400       1.155      0.9472      0.7826      0.6634      0.4453       0.000    
   2    10.00       9.957       9.903       9.834       9.766       9.699       9.628       9.535       9.438       9.366    
        9.307       9.250       9.193       9.111       8.988       8.853       8.718       8.605       8.545       8.468    
        8.386       8.337       8.286       8.208       8.083       7.892       7.691       7.532       7.380       7.241    
        7.034       6.723       6.325       5.844       5.377       4.926       4.526       4.155       3.645       3.117    
        2.668       2.186       1.753       1.441       1.210       1.031      0.8272      0.6457      0.3602       0.000    
   3    10.00       9.951       9.897       9.836       9.776       9.709       9.617       9.519       9.450       9.386    
        9.320       9.268       9.218       9.139       9.013       8.846       8.698       8.607       8.536       8.459    
        8.392       8.341       8.287       8.184       8.048       7.877       7.704       7.579       7.401       7.220    
        6.960       6.592       6.136       5.671       5.256       4.836       4.445       4.046       3.516       3.028    
        2.642       2.198       1.802       1.516       1.287       1.102      0.8606      0.5771      0.2617       0.000    
   4    10.00       9.951       9.898       9.838       9.771       9.692       9.599       9.524       9.464       9.398    
        9.340       9.297       9.241       9.151       9.029       8.851       8.697       8.612       8.533       8.463    
        8.391       8.328       8.260       8.151       8.016       7.864       7.707       7.553       7.395       7.190    
        6.864       6.376       5.893       5.539       5.194       4.760       4.290       3.823       3.400       3.031    
        2.670       2.259       1.886       1.628       1.370       1.135      0.8362      0.5191      0.2487       0.000    
   5    10.00       9.948       9.894       9.827       9.759       9.686       9.601       9.536       9.475       9.413    
        9.363       9.321       9.247       9.142       9.007       8.845       8.715       8.622       8.543       8.450    
        8.363       8.295       8.212       8.106       7.985       7.829       7.672       7.530       7.372       7.122    
        6.654       6.109       5.721       5.445       5.103       4.634       4.149       3.725       3.408       3.074    
        2.721       2.342       1.973       1.733       1.457       1.117      0.7612      0.4629      0.2329       0.000    
   6    10.00       9.940       9.877       9.821       9.759       9.679       9.608       9.552       9.488       9.429    
        9.382       9.330       9.237       9.119       9.001       8.866       8.734       8.626       8.522       8.414    
        8.328       8.247       8.175       8.079       7.925       7.772       7.645       7.501       7.281       6.902    
        6.386       5.892       5.569       5.330       5.022       4.558       4.075       3.717       3.450       3.148    
        2.825       2.493       2.115       1.793       1.428       1.054      0.6724      0.3996      0.2200       0.000    
   7    10.00       9.929       9.867       9.815       9.751       9.685       9.621       9.568       9.508       9.451    
        9.393       9.315       9.213       9.102       8.990       8.884       8.746       8.599       8.479       8.373    
        8.282       8.204       8.142       8.022       7.864       7.735       7.606       7.412       7.059       6.575    
        6.082       5.681       5.463       5.249       4.891       4.457       4.132       3.786       3.495       3.298    
        2.992       2.635       2.191       1.733       1.324      0.9156      0.5794      0.4025      0.2072       0.000    
   8    10.00       9.928       9.872       9.813       9.749       9.690       9.635       9.581       9.526       9.471    
        9.395       9.295       9.195       9.089       8.986       8.866       8.694       8.539       8.442       8.339    
        8.238       8.171       8.078       7.949       7.812       7.676       7.461       7.159       6.714       6.289    
        5.919       5.610       5.409       5.165       4.783       4.424       4.132       3.877       3.651       3.424    
        3.127       2.679       2.134       1.645       1.219      0.8574      0.6134      0.3944      0.1891       0.000    
   9    10.00       9.940       9.872       9.807       9.759       9.710       9.655       9.598       9.537       9.478    
        9.390       9.277       9.168       9.062       8.952       8.811       8.643       8.501       8.395       8.290    
        8.200       8.114       7.988       7.866       7.738       7.572       7.261       6.856       6.439       6.129    
        5.825       5.568       5.348       5.043       4.689       4.389       4.166       3.978       3.776       3.529    
        3.172       2.684       2.129       1.643       1.228      0.8765      0.6191      0.3979      0.2035       0.000    
  10    10.00       9.937       9.866       9.813       9.769       9.721       9.671       9.622       9.552       9.465    
        9.358       9.240       9.135       9.037       8.923       8.749       8.573       8.449       8.352       8.253    
        8.168       8.049       7.910       7.772       7.624       7.383       6.986       6.566       6.210       5.960    
        5.764       5.546       5.280       4.971       4.640       4.387       4.218       4.054       3.837       3.553    
        3.145       2.640       2.132       1.718       1.329      0.9648      0.6385      0.4227      0.2271       0.000    
  11    10.00       9.924       9.866       9.822       9.779       9.738       9.692       9.624       9.528       9.431    
        9.324       9.208       9.111       8.993       8.838       8.672       8.527       8.417       8.327       8.227    
        8.101       7.949       7.762       7.604       7.357       7.021       6.683       6.372       6.072       5.885    
        5.733       5.458       5.167       4.911       4.657       4.461       4.285       4.077       3.809       3.467    
        3.084       2.693       2.207       1.799       1.429       1.067      0.7176      0.4152      0.1741       0.000    
  12    10.00       9.926       9.873       9.827       9.790       9.748       9.695       9.600       9.489       9.396    
        9.296       9.176       9.058       8.917       8.781       8.629       8.488       8.393       8.294       8.156    
        7.948       7.721       7.501       7.280       6.951       6.697       6.503       6.200       5.950       5.807    
        5.634       5.381       5.139       4.901       4.717       4.532       4.309       4.056       3.732       3.388    
        3.064       2.712       2.243       1.842       1.494       1.115      0.7552      0.3917      0.1300       0.000    
  13    10.00       9.940       9.890       9.841       9.797       9.747       9.663       9.555       9.450       9.355    
        9.243       9.126       9.004       8.858       8.708       8.564       8.461       8.344       8.213       7.945    
        7.631       7.391       7.147       6.853       6.600       6.476       6.258       5.991       5.853       5.721    
        5.517       5.296       5.104       4.926       4.767       4.595       4.331       3.990       3.679       3.356    
        3.047       2.682       2.180       1.807       1.508       1.106      0.6943      0.3383      0.1035       0.000    
  14    10.00       9.954       9.911       9.859       9.798       9.717       9.608       9.500       9.406       9.301    
        9.186       9.076       8.938       8.785       8.652       8.527       8.374       8.222       7.965       7.566    
        7.264       7.030       6.706       6.475       6.355       6.242       6.027       5.860       5.729       5.593    
        5.415       5.253       5.116       4.960       4.789       4.619       4.322       3.952       3.631       3.299    
        2.983       2.531       2.053       1.760       1.421       1.060      0.6953      0.3133      8.9226E-02   0.000    
  15    10.00       9.963       9.918       9.861       9.789       9.670       9.539       9.443       9.355       9.251    
        9.162       9.049       8.872       8.698       8.576       8.384       8.190       8.029       7.638       7.201    
        6.927       6.616       6.341       6.252       6.187       6.046       5.863       5.707       5.604       5.498    
        5.360       5.241       5.128       4.990       4.823       4.616       4.271       3.864       3.527       3.225    
        2.887       2.431       2.056       1.690       1.288      0.9694      0.6214      0.2873      9.7189E-02   0.000    
  16    10.00       9.970       9.921       9.851       9.745       9.605       9.487       9.411       9.333       9.229    
        9.121       8.957       8.738       8.569       8.395       8.174       8.042       7.721       7.170       6.786    
        6.542       6.275       6.174       6.121       6.004       5.823       5.680       5.601       5.547       5.455    
        5.339       5.231       5.135       4.998       4.797       4.520       4.130       3.780       3.514       3.196    
        2.805       2.357       1.954       1.557       1.211      0.8586      0.5575      0.2901      0.1036       0.000    
  17    10.00       9.965       9.908       9.814       9.694       9.549       9.445       9.379       9.287       9.177    
        8.986       8.756       8.572       8.400       8.175       7.954       7.681       7.168       6.706       6.464    
        6.271       6.126       6.056       5.935       5.756       5.627       5.583       5.555       5.502       5.408    
        5.307       5.212       5.111       4.976       4.692       4.332       4.031       3.803       3.547       3.164    
        2.670       2.233       1.859       1.487       1.086      0.7164      0.4752      0.2635      0.1097       0.000    
  18    10.00       9.951       9.877       9.769       9.612       9.490       9.417       9.319       9.208       9.044    
        8.802       8.610       8.437       8.176       7.882       7.577       7.194       6.744       6.459       6.272    
        6.125       5.999       5.885       5.724       5.598       5.557       5.538       5.511       5.446       5.357    
        5.270       5.175       5.048       4.840       4.550       4.260       4.025       3.839       3.518       3.050    
        2.574       2.118       1.741       1.393       1.008      0.6608      0.4018      0.2202      0.1028       0.000    
  19    10.00       9.935       9.849       9.692       9.537       9.465       9.373       9.247       9.111       8.926    
        8.710       8.520       8.245       7.873       7.565       7.264       6.851       6.482       6.301       6.179    
        6.024       5.864       5.736       5.600       5.531       5.510       5.486       5.440       5.366       5.291    
        5.208       5.104       4.939       4.726       4.490       4.246       4.044       3.807       3.353       2.893    
        2.517       2.051       1.644       1.304      0.9263      0.5956      0.3616      0.2090      0.1046       0.000    
  20    10.00       9.916       9.785       9.622       9.508       9.426       9.325       9.189       9.029       8.856    
        8.631       8.349       7.974       7.632       7.359       6.997       6.620       6.431       6.277       6.110    
        5.943       5.776       5.619       5.518       5.471       5.434       5.382       5.335       5.265       5.198    
        5.120       5.017       4.853       4.667       4.455       4.247       4.034       3.667       3.192       2.801    
        2.385       1.934       1.572       1.232      0.8808      0.5352      0.3140      0.2109      0.1065       0.000    
  21    10.00       9.867       9.733       9.600       9.480       9.389       9.277       9.105       8.942       8.775    
        8.482       8.125       7.773       7.490       7.196       6.849       6.579       6.413       6.237       6.055    
        5.851       5.662       5.523       5.420       5.343       5.276       5.234       5.193       5.122       5.071    
        5.016       4.911       4.772       4.611       4.424       4.225       3.925       3.554       3.142       2.678    
        2.260       1.836       1.524       1.212      0.7654      0.4518      0.3217      0.2347      0.1128       0.000    
  22    10.00       9.848       9.690       9.560       9.459       9.349       9.186       9.014       8.869       8.647    
        8.338       7.965       7.660       7.424       7.102       6.781       6.552       6.382       6.207       5.988    
        5.753       5.561       5.382       5.224       5.121       5.072       5.041       4.987       4.963       4.933    
        4.890       4.809       4.705       4.557       4.383       4.190       3.878       3.507       3.022       2.565    
        2.203       1.819       1.472       1.010      0.6296      0.4526      0.3402      0.2262      8.9803E-02   0.000    
  23    10.00       9.814       9.660       9.552       9.442       9.279       9.094       8.959       8.775       8.544    
        8.228       7.896       7.660       7.362       7.015       6.735       6.542       6.385       6.188       5.926    
        5.675       5.449       5.213       4.931       4.681       4.634       4.708       4.744       4.790       4.803    
        4.783       4.726       4.635       4.516       4.350       4.148       3.857       3.394       2.884       2.507    
        2.160       1.723       1.225      0.8240      0.6136      0.4641      0.3394      0.2152      0.1002       0.000    
  24    10.00       9.788       9.676       9.553       9.396       9.217       9.071       8.924       8.743       8.476    
        8.186       7.927       7.668       7.310       6.942       6.720       6.561       6.399       6.161       5.896    
        5.647       5.389       5.027       4.380       3.405       3.736       4.185       4.467       4.616       4.674    
        4.685       4.647       4.582       4.460       4.299       4.095       3.734       3.245       2.811       2.411    
        1.989       1.526       1.085      0.7853      0.6100      0.4611      0.3313      0.2510      0.1381       0.000    
  25    10.00       9.815       9.698       9.548       9.383       9.223       9.073       8.934       8.712       8.446    
        8.202       7.954       7.637       7.244       6.958       6.757       6.579       6.388       6.167       5.922    
        5.653       5.396       4.737       3.358      0.2231       2.772       3.737       4.219       4.472       4.583    
        4.610       4.590       4.523       4.381       4.211       3.962       3.587       3.117       2.724       2.291    
        1.805       1.368       1.009      0.7762      0.6340      0.4955      0.3620      0.2667      0.1741       0.000    
  26    10.00       9.842       9.731       9.570       9.400       9.259       9.105       8.929       8.701       8.495    
        8.285       7.955       7.555       7.220       7.012       6.831       6.620       6.373       6.138       5.928    
        5.721       5.439       4.833       3.834       2.782       3.302       3.862       4.212       4.426       4.544    
        4.566       4.542       4.456       4.317       4.152       3.882       3.391       2.957       2.626       2.097    
        1.569       1.208      0.9972      0.8415      0.6904      0.5370      0.3981      0.2915      0.1741       0.000    
  27    10.00       9.877       9.742       9.605       9.453       9.290       9.137       8.966       8.763       8.566    
        8.286       7.896       7.549       7.278       7.095       6.892       6.616       6.344       6.153       5.986    
        5.813       5.524       5.070       4.521       3.938       3.960       4.158       4.341       4.476       4.541    
        4.545       4.512       4.427       4.285       4.062       3.639       3.174       2.833       2.323       1.804    
        1.426       1.192       1.038      0.9067      0.7675      0.5906      0.4252      0.3183      0.2139       0.000    
  28    10.00       9.888       9.773       9.643       9.505       9.351       9.192       9.021       8.830       8.603    
        8.259       7.905       7.606       7.345       7.156       6.951       6.715       6.449       6.197       6.032    
        5.878       5.671       5.370       4.962       4.595       4.431       4.443       4.526       4.557       4.570    
        4.544       4.494       4.391       4.190       3.859       3.416       3.021       2.554       2.051       1.707    
        1.433       1.240       1.088      0.9575      0.8144      0.6452      0.4816      0.3618      0.2206       0.000    
  29    10.00       9.893       9.784       9.686       9.554       9.413       9.261       9.089       8.887       8.583    
        8.245       7.936       7.652       7.437       7.220       6.998       6.783       6.571       6.328       6.115    
        5.951       5.777       5.571       5.321       4.989       4.810       4.741       4.709       4.684       4.626    
        4.553       4.450       4.317       4.042       3.645       3.245       2.834       2.364       1.982       1.733    
        1.509       1.297       1.131       1.004      0.8641      0.6907      0.5221      0.3822      0.2228       0.000    
  30    10.00       9.902       9.812       9.726       9.611       9.482       9.346       9.156       8.904       8.594    
        8.247       7.933       7.696       7.484       7.269       7.055       6.875       6.694       6.477       6.250    
        6.054       5.895       5.716       5.536       5.322       5.126       5.043       4.915       4.826       4.697    
        4.544       4.370       4.177       3.882       3.559       3.181       2.757       2.325       2.045       1.817    
        1.564       1.355       1.196       1.043      0.8866      0.7330      0.5563      0.3982      0.2406       0.000    
  31    10.00       9.919       9.841       9.760       9.677       9.575       9.427       9.203       8.913       8.591    
        8.256       7.965       7.739       7.523       7.332       7.134       6.947       6.809       6.599       6.382    
        6.195       6.028       5.871       5.703       5.561       5.405       5.252       5.103       4.932       4.743    
        4.511       4.283       4.081       3.846       3.523       3.129       2.725       2.370       2.144       1.939    
        1.676       1.435       1.249       1.088      0.9320      0.7693      0.5921      0.4254      0.2341       0.000    
  32    10.00       9.931       9.872       9.801       9.720       9.628       9.482       9.228       8.956       8.663    
        8.311       8.008       7.784       7.580       7.388       7.222       7.057       6.883       6.713       6.508    
        6.310       6.130       5.973       5.813       5.684       5.576       5.406       5.219       4.986       4.730    
        4.485       4.264       4.050       3.824       3.516       3.160       2.821       2.511       2.269       2.037    
        1.793       1.541       1.342       1.154      0.9750      0.8278      0.6463      0.4259      0.2115       0.000    
  33    10.00       9.941       9.892       9.836       9.757       9.652       9.466       9.220       8.993       8.723    
        8.380       8.081       7.850       7.628       7.449       7.307       7.162       6.990       6.802       6.611    
        6.405       6.212       6.026       5.873       5.770       5.661       5.480       5.239       4.997       4.756    
        4.518       4.315       4.100       3.816       3.525       3.203       2.913       2.662       2.410       2.156    
        1.928       1.689       1.470       1.273       1.074      0.8990      0.6949      0.4349      0.2049       0.000    
  34    10.00       9.947       9.914       9.865       9.767       9.623       9.444       9.262       9.029       8.736    
        8.435       8.144       7.896       7.675       7.515       7.404       7.250       7.076       6.871       6.689    
        6.500       6.272       6.087       5.946       5.839       5.702       5.487       5.273       5.025       4.761    
        4.560       4.383       4.184       3.904       3.605       3.310       3.042       2.817       2.557       2.301    
        2.082       1.862       1.630       1.428       1.216       1.011      0.7510      0.4824      0.2544       0.000    
  35    10.00       9.956       9.918       9.856       9.736       9.583       9.452       9.298       9.084       8.769    
        8.449       8.179       7.929       7.739       7.603       7.479       7.319       7.126       6.927       6.724    
        6.540       6.335       6.146       6.013       5.896       5.761       5.536       5.278       5.014       4.764    
        4.613       4.443       4.230       4.015       3.758       3.445       3.174       2.990       2.726       2.440    
        2.233       2.013       1.792       1.593       1.357       1.127      0.8658      0.5779      0.2888       0.000    
  36    10.00       9.953       9.900       9.830       9.710       9.565       9.447       9.304       9.089       8.795    
        8.461       8.168       7.981       7.830       7.703       7.549       7.356       7.167       6.954       6.699    
        6.503       6.339       6.178       6.061       5.949       5.786       5.544       5.276       5.005       4.780    
        4.634       4.488       4.291       4.087       3.867       3.582       3.310       3.108       2.876       2.567    
        2.335       2.112       1.886       1.722       1.494       1.240      0.9788      0.6780      0.3448       0.000    
  37    10.00       9.939       9.880       9.803       9.682       9.550       9.417       9.278       9.080       8.764    
        8.426       8.185       8.070       7.927       7.759       7.604       7.383       7.152       6.886       6.629    
        6.481       6.351       6.199       6.077       5.945       5.748       5.523       5.241       5.003       4.835    
        4.685       4.525       4.322       4.143       3.914       3.641       3.426       3.230       2.972       2.664    
        2.387       2.169       1.989       1.805       1.589       1.353       1.102      0.7653      0.4146       0.000    
  38    10.00       9.932       9.856       9.774       9.662       9.532       9.385       9.239       9.029       8.736    
        8.477       8.284       8.136       8.006       7.819       7.578       7.326       7.045       6.757       6.594    
        6.479       6.320       6.173       6.069       5.924       5.713       5.440       5.188       5.049       4.913    
        4.746       4.565       4.370       4.187       3.962       3.711       3.518       3.318       3.011       2.689    
        2.447       2.246       2.063       1.879       1.687       1.459       1.200      0.8756      0.4543       0.000    
  39    10.00       9.913       9.836       9.755       9.645       9.499       9.340       9.186       8.994       8.757    
        8.555       8.411       8.246       8.059       7.783       7.470       7.157       6.855       6.682       6.579    
        6.421       6.250       6.143       6.046       5.908       5.665       5.395       5.230       5.107       4.964    
        4.785       4.612       4.414       4.217       4.026       3.818       3.595       3.361       3.045       2.727    
        2.474       2.272       2.130       1.983       1.775       1.541       1.280      0.9278      0.4543       0.000    
  40    10.00       9.898       9.824       9.741       9.630       9.478       9.314       9.158       8.995       8.798    
        8.631       8.506       8.299       7.999       7.645       7.294       6.978       6.773       6.659       6.533    
        6.359       6.211       6.117       5.999       5.839       5.641       5.463       5.297       5.150       5.015    
        4.850       4.656       4.454       4.269       4.092       3.881       3.641       3.406       3.062       2.715    
        2.486       2.318       2.170       2.044       1.833       1.573       1.334      0.9639      0.4759       0.000    
  41    10.00       9.906       9.818       9.726       9.603       9.465       9.321       9.181       9.025       8.848    
        8.690       8.537       8.254       7.870       7.479       7.162       6.914       6.742       6.625       6.480    
        6.304       6.178       6.072       5.946       5.806       5.664       5.533       5.374       5.198       5.042    
        4.893       4.708       4.504       4.335       4.149       3.943       3.698       3.370       2.989       2.723    
        2.537       2.362       2.225       2.067       1.844       1.586       1.375       1.023      0.5239       0.000    
  42    10.00       9.909       9.811       9.726       9.618       9.489       9.346       9.190       9.050       8.914    
        8.722       8.446       8.090       7.693       7.342       7.099       6.886       6.724       6.587       6.414    
        6.252       6.136       6.027       5.937       5.819       5.715       5.592       5.409       5.222       5.083    
        4.951       4.751       4.531       4.373       4.214       3.983       3.667       3.275       2.937       2.734    
        2.585       2.437       2.268       2.062       1.830       1.623       1.409       1.065      0.5481       0.000    
  43    10.00       9.910       9.819       9.733       9.647       9.532       9.389       9.235       9.081       8.885    
        8.609       8.290       7.926       7.544       7.273       7.070       6.869       6.700       6.535       6.363    
        6.212       6.104       6.024       5.954       5.850       5.737       5.617       5.439       5.271       5.157    
        4.990       4.770       4.564       4.407       4.225       3.942       3.571       3.193       2.958       2.797    
        2.640       2.479       2.273       2.051       1.840       1.639       1.447       1.062      0.4784       0.000    
  44    10.00       9.904       9.821       9.746       9.652       9.564       9.441       9.253       9.045       8.773    
        8.493       8.157       7.760       7.483       7.274       7.049       6.830       6.637       6.458       6.305    
        6.198       6.111       6.037       5.965       5.875       5.760       5.619       5.478       5.348       5.205    
        5.044       4.845       4.612       4.391       4.177       3.888       3.501       3.175       2.986       2.831    
        2.680       2.503       2.296       2.098       1.877       1.655       1.404      0.9093      0.4019       0.000    
  45    10.00       9.904       9.836       9.750       9.660       9.581       9.403       9.188       8.942       8.674    
        8.438       8.036       7.667       7.460       7.247       7.002       6.754       6.556       6.399       6.290    
        6.213       6.137       6.059       5.973       5.876       5.771       5.653       5.534       5.427       5.280    
        5.088       4.875       4.639       4.372       4.128       3.814       3.451       3.194       3.039       2.883    
        2.687       2.483       2.301       2.122       1.929       1.690       1.266      0.7622      0.3861       0.000    
  46    10.00       9.921       9.848       9.756       9.658       9.508       9.320       9.141       8.917       8.655    
        8.315       7.946       7.649       7.391       7.173       6.931       6.683       6.529       6.412       6.311    
        6.241       6.170       6.078       5.974       5.879       5.786       5.689       5.583       5.477       5.341    
        5.162       4.940       4.678       4.376       4.037       3.700       3.435       3.259       3.087       2.908    
        2.682       2.469       2.289       2.144       1.937       1.604       1.135      0.7180      0.3648       0.000    
  47    10.00       9.938       9.871       9.775       9.604       9.424       9.263       9.110       8.909       8.581    
        8.215       7.872       7.586       7.370       7.136       6.867       6.655       6.518       6.424       6.342    
        6.266       6.184       6.093       5.991       5.897       5.816       5.731       5.626       5.503       5.369    
        5.210       5.013       4.675       4.274       3.956       3.708       3.477       3.327       3.169       2.920    
        2.651       2.427       2.259       2.141       1.882       1.484       1.054      0.6909      0.3546       0.000    
  48    10.00       9.945       9.874       9.731       9.558       9.409       9.237       9.082       8.868       8.522    
        8.123       7.812       7.581       7.323       7.050       6.810       6.650       6.516       6.427       6.366    
        6.290       6.192       6.091       6.003       5.927       5.859       5.777       5.661       5.516       5.359    
        5.195       4.969       4.620       4.291       4.013       3.766       3.550       3.380       3.175       2.877    
        2.593       2.413       2.273       2.053       1.706       1.350       1.006      0.6957      0.3743       0.000    
  49    10.00       9.943       9.840       9.712       9.571       9.397       9.224       9.051       8.785       8.419    
        8.075       7.784       7.506       7.261       7.051       6.825       6.618       6.497       6.438       6.379    
        6.308       6.197       6.085       6.012       5.950       5.896       5.804       5.664       5.499       5.350    
        5.178       4.902       4.606       4.386       4.130       3.841       3.580       3.374       3.138       2.820    
        2.591       2.434       2.224       1.893       1.585       1.294      0.9944      0.6957      0.3731       0.000    
  50    10.00       9.935       9.829       9.698       9.570       9.407       9.214       8.997       8.717       8.428    
        8.069       7.705       7.446       7.251       7.074       6.818       6.590       6.499       6.447       6.387    
        6.316       6.202       6.087       6.016       5.964       5.914       5.810       5.649       5.482       5.340    
        5.164       4.879       4.650       4.453       4.186       3.898       3.625       3.343       3.021       2.755    
        2.636       2.458       2.135       1.802       1.573       1.291       1.008      0.6814      0.3038       0.000    

 HEAD WILL BE SAVED ON UNIT   51 AT END OF TIME STEP  45, STRESS PERIOD    2

 DRAWDOWN WILL BE SAVED ON UNIT   52 AT END OF TIME STEP  45, STRESS PERIOD    2
1
  VOLUMETRIC BUDGET FOR ENTIRE MODEL AT END OF TIME STEP 45 IN STRESS PERIOD   2
  ------------------------------------------------------------------------------

     CUMULATIVE VOLUMES      L**3       RATES FOR THIS TIME STEP      L**3/T
     ------------------                 ------------------------

           IN:                                      IN:
           ---                                      ---
             STORAGE =       22183.0801               STORAGE =         472.3010
       CONSTANT HEAD =       27753.4961         CONSTANT HEAD =         621.5158
               WELLS =           0.0000                 WELLS =           0.0000

            TOTAL IN =       49936.5781              TOTAL IN =        1093.8168

          OUT:                                     OUT:
          ----                                     ----
             STORAGE =       9.4320E-03               STORAGE =           0.0000
       CONSTANT HEAD =       27436.5625         CONSTANT HEAD =         593.8171
               WELLS =       22500.0000                 WELLS =         500.0000

           TOTAL OUT =       49936.5703             TOTAL OUT =        1093.8171

            IN - OUT =       7.8125E-03              IN - OUT =      -3.6621E-04

 PERCENT DISCREPANCY =           0.00     PERCENT DISCREPANCY =           0.00






          TIME SUMMARY AT END OF TIME STEP  45 IN STRESS PERIOD    2
                    SECONDS     MINUTES      HOURS       DAYS        YEARS
                    -----------------------------------------------------------
   TIME STEP LENGTH  86400.      1440.0      24.000      1.0000     2.73785E-03
 STRESS PERIOD TIME 3.88800E+06  64800.      1080.0      45.000     0.12320    
         TOTAL TIME 3.97440E+06  66240.      1104.0      46.000     0.12594    
1
 
 SOLVING FOR HEAD 

 OUTPUT CONTROL FOR STRESS PERIOD    2   TIME STEP  46
    SAVE HEAD FOR ALL LAYERS
    SAVE DRAWDOWN FOR ALL LAYERS
    SAVE BUDGET
    PRINT HEAD FOR ALL LAYERS
    PRINT BUDGET
 UBDSV1 SAVING "         STORAGE" ON UNIT  53 AT TIME STEP 46, STRESS PERIOD   2
 UBDSV2 SAVING "   CONSTANT HEAD" ON UNIT  53 AT TIME STEP 46, STRESS PERIOD   2
 UBDSV1 SAVING "FLOW RIGHT FACE " ON UNIT  53 AT TIME STEP 46, STRESS PERIOD   2
 UBDSV1 SAVING "FLOW FRONT FACE " ON UNIT  53 AT TIME STEP 46, STRESS PERIOD   2
1
              HEAD IN LAYER   1 AT END OF TIME STEP  46 IN STRESS PERIOD    2
  ---------------------------------------------------------------------------

            1           2           3           4           5           6           7           8           9          10
           11          12          13          14          15          16          17          18          19          20
           21          22          23          24          25          26          27          28          29          30
           31          32          33          34          35          36          37          38          39          40
           41          42          43          44          45          46          47          48          49          50
 ........................................................................................................................
   1    10.00       9.958       9.898       9.829       9.763       9.687       9.615       9.544       9.455       9.367    
        9.299       9.232       9.164       9.098       8.990       8.861       8.716       8.603       8.544       8.475    
        8.394       8.328       8.264       8.190       8.091       7.896       7.675       7.521       7.370       7.227    
        7.042       6.745       6.366       5.944       5.506       5.040       4.579       4.195       3.694       3.148    
        2.701       2.272       1.797       1.400       1.155      0.9468      0.7823      0.6631      0.4451       0.000    
   2    10.00       9.957       9.902       9.833       9.766       9.699       9.627       9.534       9.436       9.364    
        9.306       9.249       9.192       9.109       8.986       8.851       8.715       8.602       8.542       8.465    
        8.383       8.334       8.282       8.205       8.079       7.888       7.688       7.529       7.376       7.238    
        7.031       6.720       6.322       5.841       5.374       4.924       4.525       4.153       3.643       3.116    
        2.666       2.185       1.752       1.440       1.209       1.031      0.8268      0.6454      0.3601       0.000    
   3    10.00       9.951       9.897       9.835       9.776       9.708       9.616       9.518       9.449       9.384    
        9.319       9.267       9.216       9.137       9.011       8.844       8.696       8.605       8.533       8.456    
        8.389       8.338       8.284       8.181       8.044       7.874       7.700       7.575       7.398       7.217    
        6.957       6.588       6.134       5.668       5.254       4.834       4.443       4.044       3.515       3.026    
        2.641       2.197       1.801       1.515       1.287       1.102      0.8602      0.5768      0.2615       0.000    
   4    10.00       9.951       9.898       9.838       9.771       9.692       9.598       9.523       9.463       9.396    
        9.339       9.295       9.239       9.149       9.027       8.849       8.694       8.609       8.530       8.460    
        8.388       8.324       8.256       8.148       8.013       7.860       7.703       7.549       7.391       7.186    
        6.860       6.373       5.890       5.536       5.192       4.758       4.288       3.821       3.398       3.029    
        2.668       2.257       1.885       1.627       1.370       1.134      0.8357      0.5189      0.2486       0.000    
   5    10.00       9.948       9.894       9.826       9.759       9.685       9.600       9.535       9.474       9.412    
        9.362       9.319       9.245       9.140       9.005       8.843       8.712       8.618       8.540       8.446    
        8.360       8.291       8.208       8.102       7.981       7.825       7.668       7.526       7.368       7.118    
        6.650       6.105       5.718       5.441       5.100       4.631       4.146       3.722       3.405       3.072    
        2.719       2.341       1.971       1.732       1.456       1.117      0.7608      0.4627      0.2327       0.000    
   6    10.00       9.940       9.876       9.820       9.758       9.679       9.607       9.551       9.486       9.428    
        9.380       9.329       9.236       9.117       8.999       8.863       8.731       8.623       8.519       8.411    
        8.324       8.243       8.171       8.075       7.921       7.767       7.641       7.497       7.277       6.898    
        6.381       5.887       5.565       5.326       5.018       4.554       4.072       3.714       3.447       3.146    
        2.823       2.491       2.113       1.792       1.427       1.054      0.6721      0.3994      0.2199       0.000    
   7    10.00       9.929       9.866       9.814       9.750       9.684       9.620       9.567       9.507       9.450    
        9.391       9.313       9.211       9.100       8.988       8.881       8.743       8.596       8.476       8.369    
        8.278       8.200       8.138       8.017       7.860       7.730       7.602       7.408       7.054       6.569    
        6.076       5.676       5.457       5.244       4.887       4.453       4.128       3.783       3.491       3.295    
        2.989       2.633       2.190       1.732       1.323      0.9151      0.5791      0.4023      0.2071       0.000    
   8    10.00       9.928       9.872       9.813       9.748       9.689       9.634       9.580       9.525       9.470    
        9.393       9.294       9.193       9.087       8.983       8.864       8.690       8.536       8.438       8.335    
        8.233       8.166       8.073       7.944       7.807       7.671       7.456       7.153       6.708       6.283    
        5.913       5.604       5.403       5.160       4.778       4.420       4.127       3.873       3.647       3.421    
        3.124       2.677       2.132       1.644       1.218      0.8569      0.6131      0.3941      0.1890       0.000    
   9    10.00       9.939       9.871       9.807       9.759       9.710       9.654       9.597       9.536       9.477    
        9.388       9.275       9.166       9.060       8.949       8.807       8.640       8.497       8.391       8.286    
        8.196       8.109       7.983       7.860       7.733       7.566       7.255       6.849       6.432       6.122    
        5.818       5.562       5.342       5.037       4.683       4.383       4.161       3.974       3.772       3.525    
        3.169       2.681       2.127       1.642       1.227      0.8760      0.6187      0.3977      0.2033       0.000    
  10    10.00       9.937       9.865       9.812       9.768       9.721       9.670       9.622       9.551       9.463    
        9.356       9.238       9.133       9.034       8.920       8.746       8.569       8.445       8.347       8.248    
        8.163       8.044       7.904       7.766       7.618       7.376       6.979       6.558       6.202       5.952    
        5.756       5.539       5.273       4.964       4.634       4.382       4.212       4.050       3.833       3.549    
        3.142       2.637       2.131       1.717       1.329      0.9642      0.6382      0.4224      0.2270       0.000    
  11    10.00       9.924       9.865       9.822       9.778       9.738       9.691       9.623       9.527       9.429    
        9.322       9.206       9.109       8.990       8.834       8.668       8.523       8.412       8.323       8.222    
        8.096       7.943       7.755       7.597       7.350       7.013       6.674       6.363       6.063       5.876    
        5.725       5.450       5.159       4.904       4.650       4.455       4.279       4.072       3.805       3.463    
        3.081       2.691       2.205       1.797       1.428       1.067      0.7171      0.4149      0.1740       0.000    
  12    10.00       9.926       9.872       9.826       9.789       9.747       9.694       9.599       9.487       9.394    
        9.294       9.173       9.055       8.914       8.777       8.624       8.484       8.388       8.289       8.151    
        7.942       7.714       7.493       7.272       6.942       6.687       6.493       6.190       5.940       5.798    
        5.625       5.372       5.130       4.893       4.710       4.525       4.303       4.051       3.727       3.384    
        3.061       2.709       2.240       1.840       1.493       1.114      0.7547      0.3915      0.1299       0.000    
  13    10.00       9.940       9.889       9.841       9.796       9.747       9.663       9.554       9.449       9.353    
        9.241       9.123       9.001       8.854       8.703       8.559       8.456       8.338       8.208       7.938    
        7.623       7.382       7.137       6.843       6.589       6.465       6.247       5.980       5.842       5.710    
        5.506       5.286       5.095       4.917       4.759       4.588       4.324       3.985       3.674       3.352    
        3.043       2.679       2.177       1.806       1.507       1.105      0.6938      0.3381      0.1035       0.000    
  14    10.00       9.954       9.910       9.859       9.798       9.716       9.607       9.498       9.404       9.298    
        9.183       9.073       8.934       8.780       8.647       8.522       8.368       8.215       7.958       7.557    
        7.253       7.019       6.694       6.463       6.343       6.229       6.015       5.848       5.716       5.581    
        5.403       5.242       5.105       4.950       4.781       4.610       4.314       3.946       3.626       3.295    
        2.979       2.528       2.051       1.758       1.420       1.059      0.6948      0.3131      8.9161E-02   0.000    
  15    10.00       9.963       9.918       9.861       9.788       9.669       9.537       9.441       9.353       9.249    
        9.158       9.045       8.868       8.693       8.570       8.378       8.183       8.022       7.629       7.190    
        6.915       6.603       6.327       6.238       6.173       6.032       5.849       5.693       5.591       5.485    
        5.348       5.230       5.116       4.980       4.813       4.607       4.264       3.858       3.522       3.220    
        2.883       2.428       2.053       1.689       1.287      0.9685      0.6208      0.2870      9.7111E-02   0.000    
  16    10.00       9.970       9.921       9.851       9.744       9.603       9.485       9.409       9.331       9.227    
        9.118       8.952       8.733       8.563       8.388       8.166       8.034       7.711       7.158       6.772    
        6.529       6.260       6.159       6.107       5.989       5.809       5.666       5.586       5.533       5.442    
        5.326       5.218       5.123       4.987       4.787       4.511       4.122       3.773       3.508       3.191    
        2.801       2.354       1.951       1.555       1.210      0.8578      0.5570      0.2899      0.1035       0.000    
  17    10.00       9.965       9.907       9.813       9.693       9.548       9.443       9.377       9.284       9.174    
        8.982       8.751       8.566       8.393       8.167       7.945       7.671       7.155       6.691       6.449    
        6.256       6.111       6.041       5.920       5.740       5.611       5.568       5.540       5.488       5.394    
        5.293       5.199       5.099       4.964       4.681       4.323       4.023       3.796       3.540       3.159    
        2.666       2.230       1.857       1.485       1.085      0.7157      0.4748      0.2633      0.1096       0.000    
  18    10.00       9.951       9.877       9.768       9.611       9.488       9.415       9.316       9.204       9.040    
        8.796       8.603       8.429       8.167       7.872       7.566       7.181       6.729       6.444       6.256    
        6.110       5.983       5.870       5.708       5.582       5.541       5.522       5.496       5.431       5.342    
        5.256       5.162       5.036       4.828       4.539       4.251       4.016       3.831       3.511       3.044    
        2.570       2.115       1.739       1.391       1.007      0.6602      0.4014      0.2200      0.1027       0.000    
  19    10.00       9.935       9.849       9.691       9.535       9.463       9.371       9.243       9.108       8.921    
        8.704       8.513       8.236       7.863       7.554       7.251       6.836       6.467       6.285       6.163    
        6.007       5.848       5.720       5.583       5.515       5.494       5.470       5.424       5.351       5.275    
        5.193       5.090       4.926       4.714       4.479       4.236       4.035       3.799       3.347       2.888    
        2.513       2.048       1.642       1.302      0.9252      0.5949      0.3612      0.2088      0.1045       0.000    
  20    10.00       9.916       9.785       9.621       9.506       9.424       9.322       9.186       9.024       8.851    
        8.625       8.341       7.964       7.620       7.346       6.983       6.605       6.415       6.261       6.094    
        5.926       5.760       5.602       5.501       5.455       5.417       5.365       5.319       5.249       5.182    
        5.104       5.002       4.840       4.654       4.444       4.237       4.025       3.659       3.185       2.796    
        2.381       1.931       1.570       1.231      0.8798      0.5346      0.3137      0.2107      0.1064       0.000    
  21    10.00       9.867       9.732       9.598       9.478       9.386       9.274       9.101       8.937       8.769    
        8.475       8.116       7.762       7.478       7.182       6.834       6.563       6.397       6.221       6.039    
        5.834       5.645       5.506       5.403       5.326       5.259       5.217       5.176       5.105       5.055    
        4.999       4.895       4.757       4.598       4.412       4.214       3.915       3.546       3.135       2.673    
        2.256       1.834       1.522       1.210      0.7645      0.4514      0.3214      0.2345      0.1127       0.000    
  22    10.00       9.847       9.689       9.559       9.457       9.347       9.182       9.010       8.863       8.641    
        8.330       7.955       7.648       7.412       7.088       6.766       6.537       6.366       6.191       5.972    
        5.736       5.544       5.365       5.207       5.104       5.055       5.023       4.970       4.946       4.916    
        4.874       4.793       4.689       4.543       4.370       4.179       3.868       3.498       3.016       2.560    
        2.200       1.816       1.470       1.009      0.6289      0.4522      0.3399      0.2260      8.9721E-02   0.000    
  23    10.00       9.813       9.658       9.551       9.439       9.275       9.090       8.954       8.769       8.537    
        8.219       7.885       7.648       7.349       7.000       6.720       6.526       6.369       6.172       5.909    
        5.658       5.432       5.195       4.914       4.664       4.616       4.690       4.726       4.773       4.786    
        4.766       4.710       4.620       4.501       4.336       4.136       3.846       3.386       2.878       2.502    
        2.157       1.721       1.223      0.8231      0.6130      0.4637      0.3391      0.2151      0.1001       0.000    
  24    10.00       9.787       9.675       9.551       9.393       9.213       9.067       8.919       8.737       8.469    
        8.176       7.917       7.656       7.297       6.927       6.705       6.545       6.383       6.144       5.879    
        5.630       5.371       5.009       4.362       3.386       3.718       4.167       4.449       4.598       4.656    
        4.668       4.630       4.566       4.445       4.286       4.083       3.724       3.237       2.805       2.406    
        1.986       1.524       1.084      0.7845      0.6094      0.4607      0.3310      0.2508      0.1380       0.000    
  25    10.00       9.814       9.696       9.546       9.381       9.219       9.069       8.929       8.706       8.439    
        8.193       7.943       7.625       7.231       6.944       6.742       6.564       6.372       6.150       5.905    
        5.636       5.378       4.719       3.339      0.2028       2.753       3.718       4.200       4.453       4.565    
        4.592       4.573       4.507       4.366       4.197       3.950       3.577       3.110       2.719       2.287    
        1.802       1.367       1.008      0.7755      0.6334      0.4950      0.3617      0.2665      0.1739       0.000    
  26    10.00       9.841       9.730       9.568       9.397       9.256       9.101       8.923       8.695       8.487    
        8.276       7.944       7.543       7.207       6.998       6.816       6.605       6.357       6.121       5.911    
        5.704       5.422       4.815       3.815       2.763       3.283       3.843       4.193       4.408       4.525    
        4.548       4.525       4.440       4.302       4.139       3.870       3.382       2.950       2.621       2.093    
        1.567       1.207      0.9963      0.8408      0.6898      0.5365      0.3977      0.2913      0.1739       0.000    
  27    10.00       9.876       9.741       9.603       9.451       9.287       9.132       8.961       8.757       8.559    
        8.277       7.886       7.538       7.265       7.081       6.877       6.600       6.328       6.136       5.969    
        5.797       5.506       5.053       4.503       3.919       3.941       4.139       4.322       4.458       4.523    
        4.527       4.495       4.411       4.270       4.049       3.628       3.166       2.828       2.319       1.801    
        1.425       1.191       1.038      0.9059      0.7668      0.5902      0.4249      0.3180      0.2137       0.000    
  28    10.00       9.887       9.772       9.641       9.503       9.348       9.188       9.016       8.824       8.596    
        8.250       7.895       7.594       7.333       7.143       6.937       6.700       6.434       6.181       6.015    
        5.861       5.654       5.353       4.944       4.576       4.412       4.424       4.507       4.538       4.552    
        4.527       4.477       4.376       4.177       3.848       3.407       3.014       2.550       2.048       1.705    
        1.431       1.239       1.087      0.9567      0.8138      0.6447      0.4812      0.3616      0.2204       0.000    
  29    10.00       9.892       9.783       9.685       9.552       9.410       9.257       9.085       8.882       8.576    
        8.237       7.927       7.641       7.425       7.207       6.985       6.769       6.556       6.313       6.099    
        5.935       5.760       5.554       5.303       4.970       4.791       4.722       4.690       4.666       4.608    
        4.536       4.435       4.303       4.030       3.636       3.238       2.829       2.361       1.979       1.731    
        1.508       1.295       1.130       1.003      0.8635      0.6902      0.5218      0.3819      0.2226       0.000    
  30    10.00       9.902       9.812       9.725       9.609       9.479       9.343       9.152       8.899       8.588    
        8.239       7.924       7.685       7.472       7.257       7.042       6.862       6.680       6.462       6.234    
        6.038       5.878       5.699       5.519       5.305       5.108       5.025       4.897       4.809       4.680    
        4.530       4.357       4.165       3.873       3.551       3.175       2.752       2.322       2.043       1.815    
        1.562       1.354       1.195       1.043      0.8859      0.7325      0.5559      0.3980      0.2405       0.000    
  31    10.00       9.918       9.840       9.759       9.675       9.573       9.425       9.200       8.908       8.585    
        8.248       7.955       7.729       7.512       7.320       7.122       6.934       6.795       6.585       6.367    
        6.179       6.013       5.855       5.687       5.545       5.389       5.236       5.086       4.916       4.728    
        4.499       4.272       4.072       3.838       3.517       3.124       2.721       2.368       2.142       1.937    
        1.674       1.434       1.248       1.087      0.9313      0.7688      0.5917      0.4252      0.2340       0.000    
  32    10.00       9.931       9.871       9.801       9.719       9.627       9.480       9.225       8.951       8.658    
        8.303       8.000       7.774       7.570       7.377       7.210       7.045       6.870       6.700       6.493    
        6.295       6.114       5.957       5.798       5.669       5.560       5.390       5.204       4.972       4.718    
        4.475       4.255       4.042       3.817       3.510       3.156       2.818       2.508       2.267       2.035    
        1.791       1.540       1.341       1.153      0.9744      0.8274      0.6460      0.4257      0.2114       0.000    
  33    10.00       9.941       9.892       9.835       9.756       9.651       9.464       9.217       8.989       8.717    
        8.374       8.073       7.841       7.618       7.439       7.296       7.151       6.978       6.790       6.598    
        6.392       6.198       6.012       5.858       5.755       5.646       5.466       5.226       4.985       4.746    
        4.509       4.308       4.093       3.810       3.520       3.199       2.909       2.660       2.408       2.155    
        1.926       1.688       1.470       1.272       1.073      0.8985      0.6946      0.4348      0.2048       0.000    
  34    10.00       9.946       9.914       9.864       9.767       9.622       9.442       9.260       9.026       8.732    
        8.429       8.137       7.888       7.666       7.506       7.394       7.239       7.065       6.859       6.677    
        6.487       6.258       6.073       5.932       5.826       5.688       5.475       5.262       5.015       4.753    
        4.553       4.376       4.178       3.899       3.600       3.306       3.039       2.814       2.555       2.300    
        2.081       1.861       1.629       1.427       1.216       1.010      0.7508      0.4823      0.2543       0.000    
  35    10.00       9.956       9.918       9.855       9.735       9.582       9.450       9.296       9.081       8.765    
        8.443       8.172       7.922       7.730       7.595       7.470       7.309       7.115       6.916       6.713    
        6.529       6.324       6.135       6.001       5.885       5.750       5.526       5.269       5.006       4.757    
        4.607       4.437       4.225       4.011       3.755       3.442       3.171       2.988       2.725       2.439    
        2.232       2.012       1.791       1.593       1.357       1.127      0.8656      0.5778      0.2887       0.000    
  36    10.00       9.953       9.900       9.829       9.709       9.564       9.446       9.301       9.086       8.791    
        8.456       8.162       7.974       7.823       7.695       7.540       7.347       7.158       6.944       6.689    
        6.493       6.329       6.168       6.051       5.939       5.776       5.535       5.268       4.999       4.775    
        4.629       4.484       4.287       4.084       3.864       3.579       3.308       3.106       2.875       2.566    
        2.334       2.111       1.886       1.722       1.494       1.239      0.9786      0.6779      0.3448       0.000    
  37    10.00       9.938       9.880       9.803       9.681       9.549       9.416       9.276       9.078       8.760    
        8.421       8.180       8.064       7.920       7.752       7.596       7.375       7.144       6.878       6.621    
        6.473       6.343       6.190       6.068       5.937       5.741       5.516       5.236       4.999       4.831    
        4.681       4.521       4.319       4.140       3.912       3.639       3.424       3.228       2.971       2.663    
        2.386       2.168       1.989       1.805       1.589       1.352       1.102      0.7652      0.4146       0.000    
  38    10.00       9.932       9.856       9.773       9.661       9.531       9.384       9.238       9.027       8.733    
        8.473       8.279       8.131       8.000       7.812       7.572       7.319       7.038       6.751       6.587    
        6.472       6.313       6.166       6.062       5.917       5.707       5.435       5.184       5.046       4.909    
        4.743       4.562       4.367       4.185       3.960       3.709       3.516       3.316       3.010       2.688    
        2.447       2.245       2.063       1.879       1.687       1.459       1.200      0.8755      0.4543       0.000    
  39    10.00       9.913       9.836       9.754       9.644       9.498       9.339       9.185       8.992       8.755    
        8.552       8.407       8.241       8.054       7.778       7.465       7.151       6.850       6.677       6.573    
        6.415       6.245       6.138       6.041       5.904       5.661       5.392       5.227       5.104       4.961    
        4.783       4.609       4.411       4.215       4.024       3.816       3.593       3.360       3.044       2.727    
        2.474       2.272       2.130       1.983       1.774       1.541       1.280      0.9277      0.4543       0.000    
  40    10.00       9.898       9.823       9.741       9.629       9.477       9.313       9.156       8.993       8.795    
        8.628       8.503       8.295       7.994       7.641       7.290       6.974       6.769       6.655       6.529    
        6.355       6.207       6.113       5.995       5.835       5.639       5.460       5.294       5.147       5.013    
        4.848       4.654       4.452       4.267       4.091       3.880       3.639       3.405       3.062       2.715    
        2.486       2.318       2.170       2.044       1.833       1.573       1.334      0.9638      0.4759       0.000    
  41    10.00       9.906       9.817       9.726       9.602       9.464       9.320       9.180       9.023       8.846    
        8.687       8.534       8.251       7.867       7.476       7.159       6.911       6.739       6.621       6.477    
        6.300       6.175       6.069       5.943       5.803       5.662       5.530       5.371       5.196       5.040    
        4.891       4.706       4.502       4.333       4.148       3.942       3.697       3.370       2.989       2.722    
        2.536       2.361       2.225       2.066       1.843       1.586       1.374       1.023      0.5239       0.000    
  42    10.00       9.909       9.810       9.726       9.618       9.489       9.345       9.189       9.048       8.912    
        8.720       8.443       8.088       7.691       7.340       7.096       6.883       6.721       6.584       6.411    
        6.249       6.133       6.025       5.935       5.817       5.713       5.590       5.407       5.220       5.081    
        4.949       4.749       4.530       4.371       4.213       3.982       3.666       3.275       2.936       2.733    
        2.585       2.436       2.267       2.061       1.830       1.623       1.409       1.065      0.5481       0.000    
  43    10.00       9.910       9.819       9.733       9.647       9.532       9.388       9.234       9.080       8.884    
        8.607       8.288       7.924       7.542       7.272       7.068       6.867       6.698       6.532       6.361    
        6.210       6.101       6.022       5.952       5.848       5.735       5.615       5.437       5.269       5.156    
        4.989       4.768       4.563       4.406       4.224       3.941       3.570       3.192       2.957       2.797    
        2.639       2.479       2.273       2.051       1.839       1.639       1.447       1.062      0.4784       0.000    
  44    10.00       9.904       9.821       9.746       9.651       9.563       9.441       9.252       9.045       8.772    
        8.491       8.156       7.758       7.481       7.272       7.048       6.828       6.635       6.456       6.303    
        6.196       6.109       6.035       5.963       5.873       5.758       5.617       5.477       5.347       5.203    
        5.043       4.844       4.611       4.390       4.176       3.887       3.500       3.174       2.986       2.830    
        2.679       2.502       2.296       2.097       1.876       1.654       1.404      0.9093      0.4018       0.000    
  45    10.00       9.904       9.836       9.749       9.660       9.581       9.402       9.187       8.942       8.673    
        8.437       8.035       7.666       7.459       7.246       7.000       6.752       6.555       6.398       6.288    
        6.212       6.136       6.057       5.971       5.875       5.770       5.652       5.532       5.426       5.279    
        5.086       4.873       4.638       4.370       4.127       3.814       3.450       3.193       3.038       2.883    
        2.687       2.482       2.301       2.122       1.929       1.690       1.266      0.7622      0.3860       0.000    
  46    10.00       9.920       9.848       9.756       9.657       9.508       9.320       9.141       8.917       8.654    
        8.314       7.945       7.648       7.390       7.172       6.929       6.682       6.528       6.410       6.310    
        6.239       6.169       6.076       5.973       5.878       5.784       5.688       5.582       5.475       5.340    
        5.161       4.939       4.677       4.375       4.036       3.699       3.434       3.259       3.087       2.908    
        2.682       2.469       2.289       2.144       1.937       1.604       1.135      0.7179      0.3648       0.000    
  47    10.00       9.938       9.871       9.775       9.604       9.423       9.262       9.109       8.909       8.580    
        8.214       7.871       7.585       7.369       7.135       6.866       6.653       6.516       6.423       6.340    
        6.265       6.183       6.091       5.990       5.895       5.815       5.730       5.624       5.502       5.367    
        5.209       5.012       4.674       4.274       3.955       3.707       3.477       3.327       3.168       2.919    
        2.651       2.427       2.258       2.141       1.882       1.483       1.054      0.6908      0.3546       0.000    
  48    10.00       9.945       9.874       9.730       9.558       9.408       9.236       9.082       8.867       8.522    
        8.123       7.811       7.580       7.322       7.049       6.809       6.649       6.515       6.426       6.364    
        6.288       6.190       6.089       6.001       5.926       5.857       5.776       5.660       5.514       5.358    
        5.194       4.968       4.619       4.290       4.012       3.765       3.550       3.380       3.175       2.877    
        2.593       2.413       2.273       2.053       1.706       1.350       1.006      0.6957      0.3743       0.000    
  49    10.00       9.943       9.840       9.712       9.571       9.397       9.224       9.050       8.784       8.419    
        8.075       7.784       7.505       7.260       7.050       6.823       6.617       6.496       6.437       6.378    
        6.307       6.196       6.084       6.011       5.949       5.895       5.803       5.662       5.498       5.348    
        5.177       4.901       4.605       4.385       4.130       3.841       3.580       3.374       3.138       2.820    
        2.591       2.433       2.224       1.893       1.584       1.294      0.9944      0.6956      0.3731       0.000    
  50    10.00       9.935       9.829       9.697       9.570       9.407       9.213       8.997       8.717       8.428    
        8.068       7.704       7.445       7.250       7.073       6.817       6.588       6.498       6.445       6.386    
        6.315       6.200       6.086       6.015       5.962       5.912       5.809       5.648       5.481       5.339    
        5.163       4.878       4.649       4.452       4.185       3.898       3.624       3.343       3.021       2.754    
        2.636       2.457       2.134       1.802       1.573       1.291       1.008      0.6813      0.3038       0.000    

 HEAD WILL BE SAVED ON UNIT   51 AT END OF TIME STEP  46, STRESS PERIOD    2

 DRAWDOWN WILL BE SAVED ON UNIT   52 AT END OF TIME STEP  46, STRESS PERIOD    2
1
  VOLUMETRIC BUDGET FOR ENTIRE MODEL AT END OF TIME STEP 46 IN STRESS PERIOD   2
  ------------------------------------------------------------------------------

     CUMULATIVE VOLUMES      L**3       RATES FOR THIS TIME STEP      L**3/T
     ------------------                 ------------------------

           IN:                                      IN:
           ---                                      ---
             STORAGE =       22653.7168               STORAGE =         470.6363
       CONSTANT HEAD =       28376.3926         CONSTANT HEAD =         622.8973
               WELLS =           0.0000                 WELLS =           0.0000

            TOTAL IN =       51030.1094              TOTAL IN =        1093.5336

          OUT:                                     OUT:
          ----                                     ----
             STORAGE =       9.4320E-03               STORAGE =           0.0000
       CONSTANT HEAD =       28030.0957         CONSTANT HEAD =         593.5336
               WELLS =       23000.0000                 WELLS =         500.0000

           TOTAL OUT =       51030.1055             TOTAL OUT =        1093.5336

            IN - OUT =       3.9063E-03              IN - OUT =           0.0000

 PERCENT DISCREPANCY =           0.00     PERCENT DISCREPANCY =           0.00






          TIME SUMMARY AT END OF TIME STEP  46 IN STRESS PERIOD    2
                    SECONDS     MINUTES      HOURS       DAYS        YEARS
                    -----------------------------------------------------------
   TIME STEP LENGTH  86400.      1440.0      24.000      1.0000     2.73785E-03
 STRESS PERIOD TIME 3.97440E+06  66240.      1104.0      46.000     0.12594    
         TOTAL TIME 4.06080E+06  67680.      1128.0      47.000     0.12868    
1
 
 SOLVING FOR HEAD 

 OUTPUT CONTROL FOR STRESS PERIOD    2   TIME STEP  47
    SAVE HEAD FOR ALL LAYERS
    SAVE DRAWDOWN FOR ALL LAYERS
    SAVE BUDGET
    PRINT HEAD FOR ALL LAYERS
    PRINT BUDGET
 UBDSV1 SAVING "         STORAGE" ON UNIT  53 AT TIME STEP 47, STRESS PERIOD   2
 UBDSV2 SAVING "   CONSTANT HEAD" ON UNIT  53 AT TIME STEP 47, STRESS PERIOD   2
 UBDSV1 SAVING "FLOW RIGHT FACE " ON UNIT  53 AT TIME STEP 47, STRESS PERIOD   2
 UBDSV1 SAVING "FLOW FRONT FACE " ON UNIT  53 AT TIME STEP 47, STRESS PERIOD   2
1
              HEAD IN LAYER   1 AT END OF TIME STEP  47 IN STRESS PERIOD    2
  ---------------------------------------------------------------------------

            1           2           3           4           5           6           7           8           9          10
           11          12          13          14          15          16          17          18          19          20
           21          22          23          24          25          26          27          28          29          30
           31          32          33          34          35          36          37          38          39          40
           41          42          43          44          45          46          47          48          49          50
 ........................................................................................................................
   1    10.00       9.958       9.897       9.829       9.762       9.686       9.614       9.543       9.453       9.366    
        9.297       9.231       9.162       9.096       8.988       8.859       8.714       8.600       8.541       8.472    
        8.390       8.325       8.261       8.186       8.088       7.892       7.671       7.517       7.366       7.224    
        7.039       6.742       6.363       5.941       5.504       5.038       4.577       4.194       3.692       3.147    
        2.699       2.271       1.797       1.399       1.154      0.9463      0.7819      0.6628      0.4449       0.000    
   2    10.00       9.957       9.902       9.833       9.765       9.698       9.627       9.533       9.435       9.363    
        9.304       9.247       9.190       9.107       8.984       8.848       8.712       8.599       8.539       8.462    
        8.380       8.331       8.279       8.201       8.076       7.885       7.684       7.526       7.373       7.234    
        7.028       6.717       6.319       5.839       5.372       4.922       4.523       4.152       3.641       3.114    
        2.665       2.184       1.751       1.439       1.209       1.030      0.8264      0.6451      0.3599       0.000    
   3    10.00       9.951       9.896       9.835       9.775       9.707       9.615       9.517       9.448       9.383    
        9.317       9.265       9.214       9.135       9.009       8.841       8.693       8.602       8.530       8.452    
        8.386       8.334       8.281       8.177       8.041       7.870       7.697       7.572       7.394       7.213    
        6.954       6.585       6.130       5.665       5.251       4.831       4.440       4.042       3.513       3.024    
        2.639       2.196       1.800       1.514       1.286       1.101      0.8598      0.5765      0.2614       0.000    
   4    10.00       9.951       9.897       9.838       9.770       9.691       9.597       9.521       9.461       9.395    
        9.337       9.294       9.237       9.147       9.024       8.846       8.692       8.606       8.526       8.457    
        8.385       8.321       8.253       8.144       8.009       7.857       7.699       7.545       7.388       7.183    
        6.856       6.370       5.886       5.533       5.189       4.755       4.285       3.818       3.395       3.027    
        2.667       2.256       1.884       1.626       1.369       1.134      0.8353      0.5186      0.2484       0.000    
   5    10.00       9.947       9.894       9.826       9.758       9.684       9.600       9.534       9.472       9.410    
        9.360       9.317       9.243       9.138       9.003       8.840       8.709       8.615       8.537       8.443    
        8.356       8.287       8.204       8.098       7.977       7.821       7.664       7.522       7.364       7.114    
        6.646       6.100       5.713       5.437       5.096       4.628       4.143       3.719       3.403       3.070    
        2.717       2.339       1.970       1.731       1.455       1.116      0.7604      0.4625      0.2326       0.000    
   6    10.00       9.940       9.876       9.820       9.758       9.678       9.606       9.550       9.485       9.426    
        9.379       9.327       9.234       9.115       8.997       8.861       8.728       8.620       8.516       8.407    
        8.320       8.239       8.167       8.071       7.917       7.763       7.637       7.492       7.272       6.893    
        6.377       5.882       5.560       5.321       5.013       4.550       4.068       3.711       3.444       3.143    
        2.821       2.489       2.112       1.791       1.426       1.053      0.6717      0.3992      0.2198       0.000    
   7    10.00       9.928       9.866       9.814       9.750       9.683       9.619       9.566       9.506       9.448    
        9.390       9.312       9.209       9.098       8.985       8.879       8.740       8.592       8.472       8.365    
        8.274       8.196       8.133       8.013       7.855       7.725       7.597       7.403       7.049       6.564    
        6.071       5.670       5.452       5.239       4.882       4.448       4.124       3.779       3.488       3.292    
        2.987       2.631       2.188       1.731       1.323      0.9146      0.5787      0.4021      0.2070       0.000    
   8    10.00       9.928       9.872       9.812       9.748       9.689       9.633       9.579       9.524       9.469    
        9.392       9.292       9.191       9.085       8.981       8.861       8.687       8.532       8.434       8.331    
        8.229       8.162       8.069       7.940       7.802       7.666       7.450       7.148       6.701       6.276    
        5.907       5.598       5.398       5.154       4.773       4.415       4.123       3.868       3.643       3.418    
        3.121       2.674       2.131       1.643       1.217      0.8564      0.6127      0.3939      0.1889       0.000    
   9    10.00       9.939       9.871       9.806       9.758       9.709       9.653       9.596       9.535       9.476    
        9.387       9.273       9.163       9.057       8.946       8.804       8.636       8.493       8.387       8.282    
        8.191       8.104       7.978       7.855       7.727       7.560       7.249       6.843       6.425       6.115    
        5.811       5.555       5.335       5.031       4.678       4.378       4.157       3.969       3.768       3.522    
        3.166       2.679       2.125       1.641       1.226      0.8754      0.6183      0.3975      0.2032       0.000    
  10    10.00       9.937       9.865       9.812       9.767       9.720       9.669       9.621       9.550       9.462    
        9.354       9.236       9.130       9.031       8.917       8.742       8.565       8.441       8.343       8.244    
        8.159       8.039       7.899       7.760       7.611       7.370       6.971       6.550       6.194       5.944    
        5.748       5.531       5.266       4.957       4.628       4.376       4.207       4.045       3.828       3.546    
        3.139       2.635       2.129       1.715       1.328      0.9635      0.6378      0.4222      0.2269       0.000    
  11    10.00       9.923       9.865       9.821       9.777       9.737       9.691       9.622       9.526       9.427    
        9.320       9.203       9.106       8.987       8.831       8.664       8.518       8.408       8.318       8.217    
        8.090       7.937       7.749       7.590       7.342       7.005       6.665       6.354       6.054       5.867    
        5.716       5.442       5.151       4.896       4.643       4.449       4.274       4.067       3.800       3.459    
        3.077       2.688       2.203       1.796       1.427       1.066      0.7167      0.4147      0.1739       0.000    
  12    10.00       9.926       9.872       9.826       9.789       9.746       9.693       9.598       9.486       9.392    
        9.292       9.171       9.052       8.910       8.773       8.620       8.479       8.383       8.284       8.145    
        7.935       7.707       7.485       7.263       6.933       6.677       6.483       6.179       5.930       5.788    
        5.616       5.363       5.121       4.885       4.703       4.518       4.296       4.045       3.722       3.380    
        3.057       2.706       2.238       1.838       1.492       1.114      0.7542      0.3912      0.1298       0.000    
  13    10.00       9.940       9.889       9.840       9.796       9.746       9.662       9.552       9.447       9.351    
        9.238       9.120       8.997       8.850       8.699       8.554       8.451       8.333       8.202       7.931    
        7.615       7.373       7.128       6.832       6.578       6.453       6.235       5.968       5.831       5.699    
        5.496       5.276       5.085       4.908       4.751       4.580       4.317       3.979       3.669       3.347    
        3.039       2.676       2.175       1.804       1.506       1.104      0.6933      0.3378      0.1034       0.000    
  14    10.00       9.954       9.910       9.858       9.797       9.715       9.606       9.496       9.402       9.296    
        9.180       9.070       8.930       8.776       8.643       8.517       8.362       8.209       7.951       7.548    
        7.243       7.008       6.683       6.450       6.330       6.217       6.002       5.835       5.704       5.569    
        5.391       5.231       5.095       4.941       4.772       4.602       4.307       3.940       3.621       3.290    
        2.976       2.525       2.048       1.757       1.419       1.058      0.6942      0.3128      8.9093E-02   0.000    
  15    10.00       9.963       9.918       9.860       9.787       9.668       9.535       9.439       9.351       9.246    
        9.155       9.042       8.864       8.688       8.565       8.372       8.176       8.014       7.620       7.179    
        6.903       6.590       6.313       6.225       6.160       6.019       5.836       5.680       5.577       5.472    
        5.335       5.218       5.105       4.969       4.804       4.598       4.256       3.851       3.516       3.216    
        2.879       2.425       2.051       1.687       1.285      0.9676      0.6203      0.2868      9.7030E-02   0.000    
  16    10.00       9.970       9.921       9.850       9.744       9.602       9.483       9.407       9.328       9.224    
        9.115       8.948       8.727       8.557       8.381       8.158       8.026       7.702       7.146       6.759    
        6.515       6.246       6.145       6.092       5.975       5.794       5.651       5.572       5.519       5.428    
        5.313       5.206       5.112       4.976       4.777       4.502       4.114       3.766       3.502       3.186    
        2.797       2.351       1.949       1.554       1.209      0.8570      0.5565      0.2896      0.1034       0.000    
  17    10.00       9.965       9.907       9.813       9.692       9.546       9.441       9.374       9.281       9.171    
        8.978       8.745       8.559       8.386       8.159       7.936       7.661       7.143       6.678       6.434    
        6.241       6.096       6.026       5.905       5.725       5.596       5.553       5.526       5.474       5.381    
        5.280       5.186       5.087       4.952       4.671       4.313       4.014       3.788       3.534       3.154    
        2.662       2.227       1.854       1.484       1.084      0.7149      0.4743      0.2630      0.1095       0.000    
  18    10.00       9.951       9.876       9.767       9.609       9.486       9.412       9.313       9.201       9.036    
        8.791       8.597       8.422       8.159       7.862       7.555       7.168       6.715       6.429       6.241    
        6.094       5.968       5.854       5.692       5.567       5.526       5.507       5.481       5.417       5.328    
        5.243       5.149       5.023       4.816       4.529       4.241       4.007       3.823       3.504       3.039    
        2.566       2.112       1.737       1.389       1.006      0.6595      0.4010      0.2198      0.1026       0.000    
  19    10.00       9.934       9.848       9.690       9.533       9.461       9.368       9.240       9.104       8.916    
        8.698       8.506       8.228       7.852       7.542       7.238       6.822       6.452       6.269       6.147    
        5.991       5.832       5.704       5.567       5.499       5.479       5.454       5.409       5.335       5.260    
        5.178       5.076       4.913       4.702       4.468       4.226       4.026       3.791       3.340       2.882    
        2.509       2.045       1.639       1.301      0.9241      0.5943      0.3608      0.2086      0.1044       0.000    
  20    10.00       9.915       9.784       9.619       9.504       9.422       9.319       9.182       9.020       8.845    
        8.618       8.333       7.954       7.609       7.333       6.969       6.589       6.399       6.245       6.078    
        5.910       5.743       5.586       5.485       5.439       5.401       5.349       5.303       5.233       5.167    
        5.089       4.988       4.826       4.641       4.432       4.226       4.015       3.651       3.179       2.791    
        2.377       1.928       1.568       1.229      0.8787      0.5340      0.3134      0.2105      0.1063       0.000    
  21    10.00       9.866       9.731       9.597       9.476       9.384       9.271       9.097       8.932       8.763    
        8.467       8.107       7.751       7.466       7.169       6.820       6.548       6.381       6.205       6.022    
        5.818       5.628       5.490       5.387       5.309       5.242       5.201       5.159       5.089       5.038    
        4.984       4.880       4.743       4.584       4.399       4.203       3.906       3.538       3.129       2.668    
        2.253       1.831       1.519       1.209      0.7636      0.4509      0.3210      0.2342      0.1126       0.000    
  22    10.00       9.847       9.688       9.557       9.454       9.344       9.179       9.005       8.858       8.634    
        8.322       7.944       7.636       7.399       7.074       6.751       6.521       6.350       6.175       5.955    
        5.719       5.528       5.348       5.190       5.087       5.038       5.006       4.953       4.929       4.899    
        4.857       4.777       4.674       4.529       4.357       4.167       3.858       3.490       3.009       2.556    
        2.196       1.814       1.468       1.007      0.6282      0.4517      0.3395      0.2258      8.9636E-02   0.000    
  23    10.00       9.812       9.657       9.549       9.437       9.272       9.086       8.949       8.763       8.529    
        8.211       7.874       7.636       7.337       6.986       6.705       6.511       6.354       6.156       5.892    
        5.641       5.415       5.178       4.896       4.646       4.599       4.673       4.709       4.755       4.768    
        4.749       4.694       4.604       4.487       4.323       4.124       3.836       3.378       2.872       2.498    
        2.153       1.718       1.222      0.8222      0.6123      0.4633      0.3388      0.2149      0.1000       0.000    
  24    10.00       9.786       9.674       9.549       9.390       9.209       9.062       8.914       8.731       8.461    
        8.167       7.906       7.644       7.284       6.913       6.690       6.530       6.367       6.128       5.863    
        5.613       5.354       4.992       4.344       3.368       3.699       4.148       4.431       4.580       4.638    
        4.650       4.614       4.550       4.430       4.272       4.071       3.714       3.230       2.799       2.402    
        1.983       1.522       1.083      0.7837      0.6088      0.4602      0.3307      0.2505      0.1379       0.000    
  25    10.00       9.814       9.695       9.544       9.378       9.216       9.065       8.923       8.699       8.431    
        8.184       7.933       7.613       7.217       6.930       6.727       6.549       6.357       6.134       5.888    
        5.619       5.361       4.701       3.320      0.1828       2.733       3.699       4.181       4.435       4.547    
        4.575       4.556       4.491       4.351       4.184       3.938       3.568       3.103       2.713       2.283    
        1.799       1.365       1.007      0.7748      0.6329      0.4946      0.3614      0.2663      0.1738       0.000    
  26    10.00       9.841       9.728       9.566       9.395       9.252       9.096       8.918       8.689       8.480    
        8.268       7.934       7.531       7.194       6.984       6.802       6.590       6.341       6.105       5.894    
        5.687       5.404       4.797       3.797       2.744       3.264       3.824       4.175       4.389       4.507    
        4.530       4.509       4.424       4.287       4.125       3.859       3.373       2.944       2.615       2.090    
        1.565       1.206      0.9953      0.8400      0.6892      0.5361      0.3974      0.2911      0.1738       0.000    
  27    10.00       9.876       9.739       9.601       9.448       9.283       9.128       8.956       8.751       8.552    
        8.269       7.875       7.526       7.252       7.068       6.863       6.585       6.312       6.120       5.953    
        5.780       5.489       5.035       4.485       3.900       3.922       4.120       4.303       4.439       4.505    
        4.510       4.478       4.395       4.255       4.036       3.618       3.158       2.821       2.315       1.799    
        1.423       1.189       1.037      0.9051      0.7662      0.5897      0.4245      0.3178      0.2136       0.000    
  28    10.00       9.887       9.771       9.639       9.500       9.345       9.185       9.012       8.819       8.589    
        8.242       7.885       7.583       7.320       7.130       6.923       6.686       6.418       6.165       5.999    
        5.845       5.637       5.336       4.926       4.558       4.393       4.405       4.488       4.520       4.534    
        4.510       4.461       4.361       4.163       3.836       3.398       3.007       2.545       2.045       1.703    
        1.430       1.238       1.086      0.9559      0.8131      0.6442      0.4808      0.3613      0.2203       0.000    
  29    10.00       9.892       9.782       9.684       9.550       9.408       9.254       9.080       8.877       8.569    
        8.228       7.917       7.630       7.413       7.194       6.971       6.755       6.541       6.297       6.083    
        5.918       5.744       5.537       5.286       4.952       4.773       4.704       4.672       4.648       4.591    
        4.520       4.420       4.290       4.019       3.627       3.231       2.824       2.357       1.977       1.729    
        1.506       1.294       1.129       1.002      0.8628      0.6897      0.5214      0.3817      0.2225       0.000    
  30    10.00       9.902       9.811       9.724       9.608       9.477       9.340       9.148       8.894       8.581    
        8.231       7.914       7.675       7.461       7.245       7.029       6.848       6.666       6.447       6.219    
        6.022       5.862       5.683       5.502       5.287       5.091       5.008       4.879       4.792       4.664    
        4.515       4.344       4.154       3.864       3.544       3.169       2.748       2.319       2.041       1.813    
        1.561       1.353       1.194       1.042      0.8853      0.7320      0.5555      0.3977      0.2403       0.000    
  31    10.00       9.918       9.840       9.758       9.674       9.571       9.422       9.196       8.903       8.578    
        8.241       7.946       7.719       7.501       7.309       7.109       6.921       6.782       6.571       6.352    
        6.164       5.997       5.839       5.671       5.529       5.373       5.219       5.070       4.900       4.714    
        4.487       4.262       4.063       3.830       3.510       3.119       2.717       2.365       2.140       1.935    
        1.673       1.433       1.247       1.087      0.9307      0.7683      0.5913      0.4249      0.2339       0.000    
  32    10.00       9.931       9.871       9.800       9.718       9.625       9.478       9.222       8.947       8.652    
        8.296       7.991       7.765       7.560       7.366       7.198       7.032       6.858       6.686       6.479    
        6.280       6.099       5.942       5.783       5.654       5.545       5.374       5.189       4.959       4.706    
        4.465       4.246       4.034       3.810       3.505       3.151       2.814       2.505       2.264       2.034    
        1.790       1.539       1.340       1.152      0.9738      0.8269      0.6456      0.4254      0.2113       0.000    
  33    10.00       9.940       9.891       9.834       9.755       9.649       9.462       9.214       8.985       8.712    
        8.367       8.065       7.832       7.609       7.429       7.286       7.139       6.966       6.777       6.585    
        6.378       6.183       5.998       5.844       5.741       5.632       5.452       5.214       4.974       4.736    
        4.501       4.300       4.086       3.804       3.515       3.195       2.906       2.657       2.405       2.153    
        1.925       1.687       1.469       1.271       1.072      0.8981      0.6943      0.4346      0.2047       0.000    
  34    10.00       9.946       9.913       9.864       9.766       9.621       9.440       9.257       9.022       8.727    
        8.423       8.129       7.880       7.657       7.496       7.384       7.229       7.054       6.847       6.665    
        6.474       6.245       6.060       5.919       5.812       5.675       5.463       5.251       5.005       4.744    
        4.546       4.369       4.172       3.893       3.596       3.303       3.036       2.812       2.553       2.298    
        2.079       1.860       1.629       1.426       1.216       1.010      0.7506      0.4822      0.2542       0.000    
  35    10.00       9.956       9.918       9.855       9.734       9.581       9.449       9.293       9.077       8.760    
        8.438       8.166       7.914       7.722       7.586       7.460       7.299       7.105       6.905       6.702    
        6.518       6.312       6.123       5.989       5.873       5.738       5.515       5.259       4.998       4.750    
        4.601       4.432       4.221       4.007       3.752       3.439       3.169       2.986       2.723       2.437    
        2.231       2.012       1.791       1.592       1.356       1.127      0.8654      0.5776      0.2886       0.000    
  36    10.00       9.953       9.900       9.829       9.708       9.563       9.444       9.299       9.083       8.787    
        8.451       8.156       7.967       7.816       7.687       7.532       7.338       7.149       6.934       6.679    
        6.484       6.320       6.158       6.041       5.929       5.766       5.527       5.261       4.993       4.770    
        4.625       4.480       4.283       4.080       3.861       3.577       3.306       3.104       2.873       2.565    
        2.333       2.111       1.885       1.721       1.494       1.239      0.9785      0.6778      0.3447       0.000    
  37    10.00       9.938       9.879       9.802       9.681       9.548       9.414       9.274       9.075       8.757    
        8.417       8.175       8.058       7.914       7.745       7.589       7.367       7.136       6.870       6.613    
        6.465       6.335       6.182       6.060       5.928       5.733       5.509       5.231       4.994       4.827    
        4.677       4.518       4.316       4.137       3.909       3.637       3.423       3.227       2.969       2.662    
        2.385       2.168       1.988       1.805       1.589       1.352       1.102      0.7651      0.4145       0.000    
  38    10.00       9.932       9.855       9.773       9.660       9.530       9.382       9.236       9.024       8.729    
        8.469       8.274       8.126       7.995       7.806       7.565       7.313       7.032       6.744       6.581    
        6.465       6.306       6.160       6.055       5.911       5.701       5.430       5.181       5.042       4.906    
        4.740       4.559       4.364       4.182       3.958       3.708       3.515       3.315       3.009       2.687    
        2.446       2.245       2.062       1.879       1.687       1.458       1.200      0.8754      0.4542       0.000    
  39    10.00       9.913       9.836       9.754       9.643       9.497       9.338       9.183       8.990       8.752    
        8.548       8.403       8.236       8.049       7.772       7.459       7.146       6.845       6.672       6.568    
        6.410       6.239       6.133       6.036       5.899       5.657       5.389       5.224       5.101       4.958    
        4.780       4.607       4.409       4.213       4.022       3.815       3.592       3.359       3.043       2.726    
        2.473       2.271       2.129       1.983       1.774       1.541       1.280      0.9276      0.4542       0.000    
  40    10.00       9.898       9.823       9.740       9.628       9.476       9.312       9.155       8.991       8.793    
        8.625       8.500       8.292       7.990       7.637       7.286       6.970       6.765       6.651       6.524    
        6.350       6.203       6.109       5.991       5.832       5.636       5.457       5.291       5.145       5.010    
        4.846       4.652       4.450       4.266       4.089       3.878       3.638       3.404       3.061       2.714    
        2.485       2.317       2.169       2.043       1.833       1.573       1.333      0.9637      0.4758       0.000    
  41    10.00       9.906       9.817       9.726       9.602       9.463       9.319       9.179       9.021       8.844    
        8.685       8.531       8.248       7.864       7.473       7.156       6.908       6.735       6.618       6.473    
        6.297       6.172       6.066       5.941       5.801       5.660       5.528       5.369       5.193       5.038    
        4.889       4.704       4.501       4.332       4.147       3.941       3.695       3.369       2.988       2.722    
        2.536       2.361       2.224       2.066       1.843       1.586       1.374       1.023      0.5238       0.000    
  42    10.00       9.908       9.810       9.725       9.617       9.488       9.344       9.188       9.047       8.910    
        8.718       8.441       8.085       7.688       7.337       7.094       6.880       6.718       6.581       6.408    
        6.247       6.131       6.023       5.933       5.814       5.711       5.588       5.405       5.218       5.079    
        4.948       4.748       4.529       4.370       4.212       3.980       3.665       3.274       2.936       2.733    
        2.584       2.436       2.267       2.061       1.830       1.623       1.409       1.065      0.5480       0.000    
  43    10.00       9.910       9.819       9.732       9.646       9.531       9.387       9.233       9.079       8.883    
        8.605       8.286       7.922       7.541       7.270       7.066       6.865       6.695       6.530       6.359    
        6.208       6.099       6.020       5.950       5.846       5.733       5.614       5.435       5.268       5.154    
        4.987       4.767       4.561       4.404       4.222       3.939       3.569       3.192       2.957       2.796    
        2.639       2.479       2.273       2.050       1.839       1.639       1.447       1.062      0.4783       0.000    
  44    10.00       9.904       9.821       9.746       9.651       9.563       9.440       9.252       9.044       8.771    
        8.490       8.155       7.757       7.480       7.271       7.046       6.826       6.633       6.454       6.302    
        6.194       6.108       6.033       5.961       5.871       5.756       5.616       5.475       5.345       5.201    
        5.041       4.842       4.610       4.389       4.175       3.886       3.499       3.173       2.985       2.830    
        2.679       2.502       2.295       2.097       1.876       1.654       1.404      0.9092      0.4018       0.000    
  45    10.00       9.904       9.836       9.749       9.660       9.580       9.402       9.186       8.941       8.672    
        8.436       8.034       7.665       7.458       7.244       6.999       6.751       6.553       6.396       6.287    
        6.210       6.134       6.056       5.969       5.873       5.768       5.650       5.531       5.424       5.277    
        5.085       4.872       4.636       4.369       4.126       3.813       3.449       3.193       3.038       2.882    
        2.687       2.482       2.301       2.122       1.929       1.690       1.266      0.7621      0.3860       0.000    
  46    10.00       9.920       9.848       9.756       9.657       9.508       9.319       9.140       8.916       8.653    
        8.313       7.944       7.647       7.389       7.170       6.928       6.680       6.526       6.409       6.308    
        6.237       6.167       6.074       5.971       5.876       5.783       5.686       5.580       5.474       5.339    
        5.159       4.937       4.676       4.374       4.035       3.698       3.434       3.258       3.086       2.907    
        2.682       2.468       2.288       2.144       1.937       1.604       1.135      0.7178      0.3647       0.000    
  47    10.00       9.938       9.871       9.774       9.604       9.423       9.262       9.109       8.908       8.580    
        8.213       7.870       7.584       7.367       7.133       6.865       6.652       6.515       6.422       6.339    
        6.263       6.181       6.090       5.988       5.894       5.813       5.728       5.623       5.500       5.366    
        5.208       5.010       4.673       4.273       3.955       3.706       3.476       3.326       3.168       2.919    
        2.650       2.426       2.258       2.141       1.881       1.483       1.053      0.6908      0.3545       0.000    
  48    10.00       9.945       9.874       9.730       9.558       9.408       9.236       9.081       8.867       8.521    
        8.122       7.810       7.579       7.320       7.048       6.808       6.647       6.514       6.424       6.363    
        6.287       6.189       6.088       6.000       5.924       5.856       5.774       5.658       5.513       5.357    
        5.193       4.967       4.618       4.290       4.011       3.765       3.549       3.379       3.175       2.877    
        2.593       2.413       2.273       2.053       1.706       1.350       1.006      0.6957      0.3742       0.000    
  49    10.00       9.942       9.840       9.712       9.571       9.396       9.223       9.050       8.784       8.418    
        8.074       7.783       7.504       7.258       7.049       6.822       6.616       6.495       6.435       6.376    
        6.305       6.194       6.082       6.009       5.947       5.893       5.802       5.661       5.497       5.347    
        5.176       4.900       4.604       4.384       4.129       3.840       3.579       3.373       3.138       2.820    
        2.590       2.433       2.224       1.892       1.584       1.294      0.9943      0.6956      0.3730       0.000    
  50    10.00       9.935       9.829       9.697       9.570       9.407       9.213       8.996       8.716       8.427    
        8.068       7.703       7.444       7.249       7.072       6.816       6.587       6.497       6.444       6.384    
        6.313       6.199       6.085       6.014       5.961       5.911       5.807       5.646       5.480       5.338    
        5.161       4.877       4.648       4.451       4.184       3.897       3.624       3.343       3.020       2.754    
        2.636       2.457       2.134       1.802       1.573       1.291       1.008      0.6813      0.3037       0.000    

 HEAD WILL BE SAVED ON UNIT   51 AT END OF TIME STEP  47, STRESS PERIOD    2

 DRAWDOWN WILL BE SAVED ON UNIT   52 AT END OF TIME STEP  47, STRESS PERIOD    2
1
  VOLUMETRIC BUDGET FOR ENTIRE MODEL AT END OF TIME STEP 47 IN STRESS PERIOD   2
  ------------------------------------------------------------------------------

     CUMULATIVE VOLUMES      L**3       RATES FOR THIS TIME STEP      L**3/T
     ------------------                 ------------------------

           IN:                                      IN:
           ---                                      ---
             STORAGE =       23122.6543               STORAGE =         468.9369
       CONSTANT HEAD =       29000.6934         CONSTANT HEAD =         624.2999
               WELLS =           0.0000                 WELLS =           0.0000

            TOTAL IN =       52123.3477              TOTAL IN =        1093.2368

          OUT:                                     OUT:
          ----                                     ----
             STORAGE =       9.4320E-03               STORAGE =           0.0000
       CONSTANT HEAD =       28623.3320         CONSTANT HEAD =         593.2371
               WELLS =       23500.0000                 WELLS =         500.0000

           TOTAL OUT =       52123.3398             TOTAL OUT =        1093.2371

            IN - OUT =       7.8125E-03              IN - OUT =      -2.4414E-04

 PERCENT DISCREPANCY =           0.00     PERCENT DISCREPANCY =           0.00






          TIME SUMMARY AT END OF TIME STEP  47 IN STRESS PERIOD    2
                    SECONDS     MINUTES      HOURS       DAYS        YEARS
                    -----------------------------------------------------------
   TIME STEP LENGTH  86400.      1440.0      24.000      1.0000     2.73785E-03
 STRESS PERIOD TIME 4.06080E+06  67680.      1128.0      47.000     0.12868    
         TOTAL TIME 4.14720E+06  69120.      1152.0      48.000     0.13142    
1
 
 SOLVING FOR HEAD 

 OUTPUT CONTROL FOR STRESS PERIOD    2   TIME STEP  48
    SAVE HEAD FOR ALL LAYERS
    SAVE DRAWDOWN FOR ALL LAYERS
    SAVE BUDGET
    PRINT HEAD FOR ALL LAYERS
    PRINT BUDGET
 UBDSV1 SAVING "         STORAGE" ON UNIT  53 AT TIME STEP 48, STRESS PERIOD   2
 UBDSV2 SAVING "   CONSTANT HEAD" ON UNIT  53 AT TIME STEP 48, STRESS PERIOD   2
 UBDSV1 SAVING "FLOW RIGHT FACE " ON UNIT  53 AT TIME STEP 48, STRESS PERIOD   2
 UBDSV1 SAVING "FLOW FRONT FACE " ON UNIT  53 AT TIME STEP 48, STRESS PERIOD   2
1
              HEAD IN LAYER   1 AT END OF TIME STEP  48 IN STRESS PERIOD    2
  ---------------------------------------------------------------------------

            1           2           3           4           5           6           7           8           9          10
           11          12          13          14          15          16          17          18          19          20
           21          22          23          24          25          26          27          28          29          30
           31          32          33          34          35          36          37          38          39          40
           41          42          43          44          45          46          47          48          49          50
 ........................................................................................................................
   1    10.00       9.958       9.897       9.828       9.761       9.685       9.613       9.542       9.452       9.364    
        9.296       9.229       9.160       9.094       8.986       8.856       8.711       8.597       8.538       8.469    
        8.387       8.322       8.257       8.183       8.084       7.889       7.668       7.514       7.363       7.221    
        7.036       6.739       6.360       5.938       5.501       5.036       4.575       4.192       3.691       3.145    
        2.698       2.270       1.796       1.398       1.153      0.9459      0.7815      0.6625      0.4447       0.000    
   2    10.00       9.957       9.902       9.833       9.764       9.697       9.626       9.532       9.434       9.361    
        9.302       9.245       9.188       9.105       8.982       8.846       8.709       8.596       8.536       8.459    
        8.377       8.327       8.275       8.198       8.072       7.881       7.681       7.522       7.369       7.231    
        7.025       6.714       6.316       5.836       5.370       4.919       4.520       4.150       3.640       3.113    
        2.664       2.183       1.750       1.438       1.208       1.030      0.8260      0.6448      0.3597       0.000    
   3    10.00       9.951       9.896       9.835       9.775       9.707       9.614       9.516       9.446       9.381    
        9.316       9.263       9.213       9.133       9.006       8.839       8.690       8.599       8.527       8.449    
        8.382       8.331       8.277       8.174       8.037       7.867       7.693       7.568       7.390       7.210    
        6.950       6.582       6.127       5.662       5.248       4.829       4.438       4.040       3.511       3.023    
        2.638       2.195       1.799       1.514       1.285       1.101      0.8594      0.5763      0.2613       0.000    
   4    10.00       9.951       9.897       9.837       9.769       9.690       9.596       9.520       9.460       9.393    
        9.335       9.292       9.235       9.145       9.022       8.844       8.689       8.603       8.523       8.453    
        8.381       8.317       8.249       8.141       8.005       7.853       7.695       7.541       7.384       7.179    
        6.853       6.366       5.883       5.529       5.186       4.752       4.283       3.816       3.393       3.025    
        2.665       2.255       1.882       1.625       1.368       1.133      0.8349      0.5183      0.2483       0.000    
   5    10.00       9.947       9.893       9.826       9.757       9.684       9.599       9.533       9.471       9.409    
        9.359       9.316       9.242       9.136       9.000       8.838       8.706       8.612       8.533       8.439    
        8.353       8.284       8.201       8.094       7.974       7.817       7.660       7.518       7.360       7.110    
        6.642       6.096       5.709       5.433       5.093       4.625       4.140       3.717       3.400       3.068    
        2.715       2.338       1.969       1.730       1.454       1.116      0.7600      0.4622      0.2325       0.000    
   6    10.00       9.940       9.876       9.819       9.757       9.677       9.605       9.549       9.484       9.425    
        9.377       9.326       9.232       9.113       8.994       8.858       8.725       8.617       8.512       8.403    
        8.317       8.235       8.163       8.067       7.913       7.759       7.632       7.488       7.268       6.889    
        6.372       5.877       5.555       5.317       5.009       4.546       4.065       3.708       3.442       3.141    
        2.819       2.487       2.110       1.790       1.425       1.052      0.6713      0.3989      0.2196       0.000    
   7    10.00       9.928       9.866       9.813       9.749       9.682       9.618       9.565       9.505       9.447    
        9.388       9.310       9.207       9.096       8.983       8.876       8.737       8.589       8.469       8.361    
        8.270       8.192       8.129       8.009       7.851       7.721       7.592       7.398       7.044       6.559    
        6.065       5.665       5.447       5.234       4.877       4.444       4.120       3.776       3.485       3.289    
        2.984       2.629       2.187       1.730       1.322      0.9141      0.5784      0.4019      0.2069       0.000    
   8    10.00       9.928       9.871       9.812       9.747       9.688       9.632       9.578       9.523       9.467    
        9.390       9.290       9.189       9.083       8.978       8.858       8.684       8.528       8.430       8.327    
        8.225       8.157       8.064       7.935       7.797       7.661       7.445       7.142       6.695       6.270    
        5.900       5.592       5.392       5.148       4.768       4.410       4.118       3.864       3.640       3.415    
        3.118       2.672       2.129       1.642       1.217      0.8558      0.6124      0.3937      0.1887       0.000    
   9    10.00       9.939       9.871       9.806       9.758       9.708       9.652       9.595       9.534       9.474    
        9.385       9.272       9.161       9.055       8.944       8.801       8.633       8.489       8.383       8.277    
        8.187       8.099       7.973       7.850       7.722       7.555       7.243       6.836       6.418       6.107    
        5.803       5.548       5.329       5.025       4.672       4.373       4.152       3.965       3.764       3.518    
        3.163       2.677       2.124       1.639       1.226      0.8748      0.6179      0.3972      0.2031       0.000    
  10    10.00       9.936       9.865       9.811       9.767       9.719       9.668       9.620       9.548       9.461    
        9.352       9.233       9.128       9.029       8.914       8.739       8.561       8.437       8.338       8.239    
        8.154       8.033       7.893       7.754       7.605       7.363       6.964       6.542       6.185       5.936    
        5.740       5.524       5.258       4.951       4.622       4.370       4.202       4.040       3.824       3.542    
        3.136       2.632       2.127       1.714       1.327      0.9628      0.6374      0.4219      0.2267       0.000    
  11    10.00       9.923       9.865       9.821       9.777       9.736       9.690       9.621       9.524       9.426    
        9.318       9.201       9.104       8.984       8.827       8.660       8.514       8.403       8.313       8.212    
        8.085       7.931       7.743       7.584       7.335       6.997       6.656       6.345       6.045       5.859    
        5.707       5.433       5.143       4.889       4.637       4.443       4.268       4.062       3.796       3.455    
        3.074       2.685       2.201       1.794       1.426       1.065      0.7162      0.4144      0.1738       0.000    
  12    10.00       9.926       9.872       9.825       9.788       9.746       9.692       9.597       9.484       9.390    
        9.290       9.168       9.049       8.907       8.770       8.616       8.474       8.378       8.278       8.140    
        7.929       7.700       7.478       7.255       6.923       6.668       6.473       6.169       5.920       5.778    
        5.606       5.353       5.113       4.877       4.695       4.511       4.290       4.040       3.717       3.376    
        3.054       2.703       2.236       1.837       1.491       1.113      0.7536      0.3910      0.1297       0.000    
  13    10.00       9.940       9.889       9.840       9.795       9.745       9.661       9.551       9.445       9.349    
        9.236       9.117       8.994       8.846       8.695       8.550       8.446       8.328       8.196       7.924    
        7.607       7.364       7.118       6.822       6.567       6.442       6.224       5.957       5.819       5.689    
        5.485       5.266       5.076       4.899       4.743       4.573       4.311       3.973       3.664       3.343    
        3.036       2.673       2.173       1.802       1.505       1.104      0.6928      0.3376      0.1033       0.000    
  14    10.00       9.954       9.910       9.858       9.797       9.714       9.604       9.495       9.400       9.294    
        9.177       9.067       8.927       8.772       8.638       8.512       8.356       8.203       7.943       7.539    
        7.233       6.998       6.671       6.438       6.318       6.205       5.990       5.823       5.692       5.557    
        5.380       5.220       5.085       4.931       4.763       4.594       4.300       3.934       3.615       3.286    
        2.972       2.522       2.046       1.755       1.417       1.057      0.6936      0.3126      8.9022E-02   0.000    
  15    10.00       9.963       9.917       9.860       9.787       9.667       9.534       9.437       9.348       9.243    
        9.152       9.038       8.860       8.683       8.560       8.366       8.169       8.007       7.610       7.168    
        6.891       6.578       6.300       6.211       6.146       6.006       5.822       5.667       5.564       5.459    
        5.323       5.206       5.094       4.959       4.794       4.590       4.248       3.845       3.511       3.211    
        2.875       2.422       2.048       1.685       1.284      0.9667      0.6197      0.2865      9.6945E-02   0.000    
  16    10.00       9.970       9.921       9.850       9.743       9.600       9.481       9.405       9.326       9.221    
        9.111       8.944       8.722       8.552       8.375       8.151       8.018       7.692       7.135       6.746    
        6.501       6.232       6.131       6.078       5.961       5.780       5.637       5.558       5.506       5.415    
        5.300       5.194       5.100       4.965       4.767       4.493       4.106       3.759       3.496       3.181    
        2.792       2.348       1.947       1.552       1.208      0.8561      0.5559      0.2894      0.1033       0.000    
  17    10.00       9.965       9.907       9.812       9.691       9.544       9.439       9.372       9.279       9.168    
        8.973       8.740       8.553       8.379       8.151       7.927       7.651       7.131       6.664       6.420    
        6.227       6.081       6.011       5.890       5.710       5.581       5.538       5.511       5.459       5.367    
        5.267       5.174       5.075       4.941       4.660       4.304       4.006       3.781       3.527       3.148    
        2.658       2.224       1.852       1.482       1.083      0.7142      0.4738      0.2627      0.1094       0.000    
  18    10.00       9.951       9.876       9.766       9.608       9.484       9.410       9.311       9.198       9.032    
        8.785       8.591       8.415       8.150       7.853       7.544       7.155       6.701       6.414       6.226    
        6.079       5.952       5.839       5.676       5.551       5.510       5.492       5.466       5.402       5.314    
        5.229       5.135       5.011       4.804       4.518       4.231       3.998       3.815       3.497       3.034    
        2.562       2.109       1.735       1.388       1.005      0.6587      0.4005      0.2196      0.1025       0.000    
  19    10.00       9.934       9.848       9.689       9.531       9.459       9.365       9.237       9.100       8.911    
        8.692       8.499       8.219       7.842       7.531       7.226       6.808       6.437       6.254       6.131    
        5.976       5.816       5.688       5.551       5.483       5.463       5.439       5.393       5.320       5.245    
        5.164       5.062       4.900       4.690       4.457       4.215       4.017       3.783       3.333       2.877    
        2.504       2.042       1.637       1.299      0.9230      0.5936      0.3604      0.2084      0.1043       0.000    
  20    10.00       9.915       9.783       9.618       9.502       9.419       9.316       9.179       9.015       8.840    
        8.612       8.325       7.944       7.597       7.321       6.955       6.575       6.384       6.229       6.062    
        5.894       5.727       5.570       5.469       5.423       5.385       5.333       5.287       5.217       5.151    
        5.074       4.973       4.812       4.628       4.420       4.216       4.006       3.643       3.172       2.785    
        2.373       1.925       1.566       1.228      0.8777      0.5334      0.3131      0.2102      0.1062       0.000    
  21    10.00       9.866       9.730       9.595       9.474       9.381       9.268       9.093       8.927       8.757    
        8.460       8.097       7.740       7.453       7.156       6.805       6.533       6.366       6.189       6.006    
        5.802       5.612       5.473       5.370       5.293       5.226       5.184       5.143       5.072       5.022    
        4.968       4.865       4.729       4.571       4.387       4.191       3.896       3.530       3.122       2.663    
        2.249       1.828       1.517       1.207      0.7627      0.4504      0.3207      0.2340      0.1124       0.000    
  22    10.00       9.846       9.686       9.555       9.452       9.341       9.175       9.000       8.853       8.627    
        8.313       7.934       7.625       7.386       7.060       6.736       6.506       6.334       6.159       5.939    
        5.703       5.511       5.332       5.173       5.070       5.021       4.989       4.936       4.912       4.883    
        4.841       4.761       4.659       4.515       4.344       4.155       3.848       3.482       3.003       2.551    
        2.192       1.811       1.466       1.006      0.6275      0.4512      0.3392      0.2255      8.9548E-02   0.000    
  23    10.00       9.812       9.656       9.547       9.434       9.269       9.081       8.944       8.757       8.522    
        8.202       7.864       7.625       7.324       6.972       6.690       6.495       6.338       6.140       5.876    
        5.624       5.398       5.161       4.879       4.629       4.582       4.656       4.691       4.738       4.751    
        4.732       4.678       4.589       4.473       4.310       4.112       3.826       3.370       2.866       2.493    
        2.150       1.715       1.220      0.8212      0.6117      0.4628      0.3385      0.2147      9.9936E-02   0.000    
  24    10.00       9.785       9.672       9.547       9.388       9.206       9.058       8.909       8.724       8.453    
        8.158       7.896       7.633       7.271       6.899       6.676       6.515       6.351       6.112       5.846    
        5.596       5.337       4.975       4.326       3.350       3.681       4.130       4.413       4.562       4.621    
        4.633       4.597       4.534       4.416       4.258       4.058       3.703       3.222       2.793       2.398    
        1.979       1.520       1.081      0.7829      0.6082      0.4598      0.3304      0.2503      0.1378       0.000    
  25    10.00       9.813       9.694       9.542       9.375       9.212       9.060       8.918       8.693       8.423    
        8.175       7.923       7.602       7.204       6.916       6.712       6.533       6.341       6.118       5.872    
        5.602       5.344       4.684       3.302      0.1631       2.715       3.680       4.163       4.417       4.530    
        4.558       4.540       4.475       4.337       4.170       3.926       3.558       3.095       2.708       2.279    
        1.797       1.363       1.006      0.7741      0.6323      0.4942      0.3610      0.2660      0.1736       0.000    
  26    10.00       9.840       9.727       9.564       9.392       9.249       9.092       8.913       8.682       8.472    
        8.259       7.924       7.519       7.180       6.970       6.787       6.575       6.325       6.089       5.878    
        5.671       5.388       4.780       3.779       2.725       3.245       3.805       4.156       4.371       4.490    
        4.513       4.492       4.409       4.273       4.112       3.847       3.364       2.937       2.610       2.086    
        1.563       1.204      0.9944      0.8392      0.6886      0.5356      0.3971      0.2908      0.1736       0.000    
  27    10.00       9.875       9.738       9.599       9.446       9.280       9.124       8.951       8.745       8.545    
        8.260       7.865       7.514       7.239       7.054       6.849       6.570       6.297       6.104       5.937    
        5.763       5.472       5.018       4.467       3.881       3.903       4.101       4.285       4.421       4.488    
        4.493       4.462       4.380       4.241       4.023       3.608       3.151       2.815       2.311       1.796    
        1.422       1.188       1.036      0.9043      0.7655      0.5892      0.4242      0.3175      0.2134       0.000    
  28    10.00       9.886       9.770       9.638       9.498       9.342       9.181       9.007       8.813       8.582    
        8.234       7.875       7.571       7.308       7.117       6.909       6.671       6.403       6.149       5.983    
        5.829       5.620       5.319       4.908       4.540       4.375       4.387       4.470       4.501       4.516    
        4.493       4.445       4.346       4.150       3.825       3.390       3.001       2.540       2.042       1.701    
        1.428       1.237       1.085      0.9550      0.8124      0.6437      0.4804      0.3610      0.2201       0.000    
  29    10.00       9.891       9.781       9.682       9.548       9.405       9.250       9.076       8.871       8.562    
        8.220       7.907       7.619       7.402       7.182       6.958       6.741       6.527       6.282       6.068    
        5.902       5.727       5.520       5.269       4.935       4.755       4.686       4.654       4.630       4.574    
        4.504       4.405       4.276       4.007       3.618       3.224       2.818       2.354       1.974       1.727    
        1.504       1.293       1.128       1.001      0.8621      0.6891      0.5210      0.3814      0.2223       0.000    
  30    10.00       9.901       9.810       9.723       9.606       9.475       9.337       9.144       8.889       8.575    
        8.222       7.905       7.664       7.449       7.233       7.016       6.835       6.652       6.432       6.203    
        6.006       5.846       5.666       5.485       5.270       5.073       4.990       4.862       4.776       4.649    
        4.500       4.332       4.143       3.855       3.536       3.163       2.743       2.316       2.038       1.811    
        1.559       1.351       1.193       1.041      0.8846      0.7314      0.5551      0.3974      0.2402       0.000    
  31    10.00       9.918       9.839       9.757       9.673       9.569       9.420       9.193       8.898       8.572    
        8.233       7.937       7.709       7.490       7.297       7.097       6.908       6.769       6.557       6.337    
        6.149       5.981       5.823       5.655       5.513       5.356       5.203       5.053       4.885       4.700    
        4.474       4.251       4.053       3.822       3.504       3.114       2.714       2.362       2.137       1.933    
        1.671       1.432       1.246       1.086      0.9300      0.7677      0.5909      0.4246      0.2337       0.000    
  32    10.00       9.931       9.870       9.799       9.717       9.624       9.475       9.218       8.943       8.646    
        8.289       7.982       7.755       7.549       7.355       7.187       7.020       6.845       6.673       6.466    
        6.266       6.085       5.927       5.768       5.639       5.530       5.359       5.174       4.945       4.694    
        4.455       4.237       4.026       3.803       3.499       3.147       2.811       2.502       2.262       2.032    
        1.788       1.538       1.339       1.152      0.9732      0.8263      0.6452      0.4252      0.2111       0.000    
  33    10.00       9.940       9.891       9.834       9.754       9.648       9.460       9.211       8.981       8.707    
        8.360       8.057       7.823       7.599       7.418       7.275       7.128       6.954       6.764       6.572    
        6.364       6.169       5.984       5.830       5.726       5.617       5.438       5.201       4.963       4.726    
        4.492       4.292       4.079       3.798       3.510       3.191       2.903       2.654       2.403       2.151    
        1.924       1.686       1.468       1.270       1.072      0.8976      0.6940      0.4344      0.2046       0.000    
  34    10.00       9.946       9.913       9.863       9.765       9.619       9.438       9.254       9.018       8.722    
        8.417       8.122       7.872       7.648       7.487       7.374       7.218       7.043       6.835       6.653    
        6.462       6.233       6.047       5.906       5.799       5.663       5.451       5.240       4.996       4.736    
        4.539       4.362       4.166       3.888       3.592       3.299       3.033       2.809       2.551       2.297    
        2.078       1.859       1.628       1.426       1.215       1.010      0.7503      0.4820      0.2541       0.000    
  35    10.00       9.956       9.918       9.854       9.733       9.579       9.447       9.291       9.074       8.756    
        8.432       8.159       7.907       7.714       7.577       7.451       7.289       7.095       6.894       6.691    
        6.507       6.301       6.112       5.978       5.862       5.727       5.505       5.250       4.990       4.744    
        4.595       4.427       4.216       4.003       3.748       3.437       3.167       2.984       2.722       2.436    
        2.230       2.011       1.790       1.592       1.356       1.127      0.8652      0.5775      0.2886       0.000    
  36    10.00       9.953       9.899       9.828       9.708       9.562       9.442       9.297       9.080       8.783    
        8.446       8.150       7.961       7.808       7.679       7.524       7.329       7.139       6.925       6.670    
        6.474       6.310       6.148       6.032       5.919       5.757       5.518       5.253       4.987       4.764    
        4.620       4.476       4.280       4.077       3.858       3.575       3.304       3.103       2.872       2.563    
        2.332       2.110       1.885       1.721       1.493       1.239      0.9783      0.6777      0.3447       0.000    
  37    10.00       9.938       9.879       9.802       9.680       9.546       9.413       9.272       9.073       8.753    
        8.412       8.169       8.052       7.907       7.738       7.581       7.359       7.127       6.862       6.605    
        6.456       6.326       6.174       6.052       5.920       5.725       5.503       5.225       4.990       4.823    
        4.673       4.514       4.313       4.135       3.907       3.635       3.421       3.225       2.968       2.661    
        2.384       2.167       1.988       1.804       1.588       1.352       1.102      0.7650      0.4145       0.000    
  38    10.00       9.932       9.855       9.772       9.660       9.529       9.381       9.234       9.022       8.726    
        8.465       8.270       8.120       7.989       7.799       7.558       7.306       7.025       6.738       6.574    
        6.458       6.299       6.153       6.048       5.904       5.695       5.426       5.177       5.039       4.903    
        4.736       4.556       4.362       4.180       3.956       3.706       3.513       3.313       3.007       2.686    
        2.445       2.244       2.062       1.878       1.686       1.458       1.200      0.8753      0.4541       0.000    
  39    10.00       9.913       9.836       9.753       9.642       9.496       9.336       9.181       8.988       8.749    
        8.545       8.399       8.232       8.044       7.767       7.454       7.141       6.840       6.667       6.562    
        6.405       6.234       6.128       6.030       5.894       5.652       5.386       5.221       5.098       4.955    
        4.777       4.604       4.407       4.211       4.021       3.813       3.591       3.358       3.042       2.725    
        2.472       2.271       2.129       1.982       1.774       1.541       1.280      0.9274      0.4542       0.000    
  40    10.00       9.898       9.823       9.740       9.628       9.475       9.310       9.153       8.989       8.790    
        8.622       8.496       8.288       7.986       7.633       7.282       6.966       6.761       6.647       6.520    
        6.346       6.199       6.105       5.987       5.828       5.633       5.455       5.289       5.142       5.008    
        4.844       4.650       4.449       4.264       4.088       3.877       3.637       3.403       3.060       2.713    
        2.485       2.317       2.169       2.043       1.832       1.573       1.333      0.9636      0.4758       0.000    
  41    10.00       9.905       9.817       9.725       9.601       9.462       9.318       9.177       9.020       8.842    
        8.682       8.528       8.245       7.860       7.470       7.153       6.905       6.732       6.614       6.470    
        6.294       6.169       6.063       5.938       5.798       5.657       5.526       5.367       5.191       5.036    
        4.888       4.703       4.499       4.330       4.145       3.939       3.694       3.368       2.987       2.721    
        2.535       2.361       2.224       2.066       1.843       1.586       1.374       1.022      0.5237       0.000    
  42    10.00       9.908       9.810       9.725       9.617       9.487       9.343       9.186       9.045       8.908    
        8.716       8.439       8.083       7.686       7.335       7.091       6.878       6.715       6.578       6.406    
        6.244       6.128       6.020       5.931       5.812       5.708       5.586       5.403       5.216       5.078    
        4.946       4.746       4.527       4.369       4.210       3.979       3.664       3.273       2.935       2.732    
        2.584       2.436       2.267       2.061       1.830       1.623       1.409       1.065      0.5479       0.000    
  43    10.00       9.909       9.819       9.732       9.646       9.531       9.386       9.232       9.077       8.881    
        8.604       8.285       7.921       7.539       7.268       7.064       6.862       6.693       6.528       6.356    
        6.206       6.097       6.018       5.948       5.844       5.731       5.612       5.434       5.266       5.152    
        4.986       4.765       4.560       4.403       4.221       3.938       3.568       3.191       2.956       2.796    
        2.639       2.478       2.272       2.050       1.839       1.639       1.447       1.062      0.4783       0.000    
  44    10.00       9.904       9.821       9.746       9.651       9.562       9.440       9.251       9.043       8.770    
        8.489       8.153       7.755       7.478       7.269       7.044       6.824       6.631       6.452       6.300    
        6.192       6.106       6.031       5.959       5.869       5.755       5.614       5.473       5.344       5.200    
        5.040       4.841       4.608       4.387       4.174       3.885       3.499       3.173       2.985       2.830    
        2.679       2.502       2.295       2.097       1.876       1.654       1.403      0.9091      0.4017       0.000    
  45    10.00       9.904       9.836       9.749       9.659       9.580       9.401       9.186       8.940       8.672    
        8.435       8.033       7.664       7.456       7.243       6.997       6.749       6.551       6.394       6.285    
        6.208       6.132       6.054       5.967       5.871       5.766       5.648       5.529       5.423       5.276    
        5.083       4.871       4.635       4.368       4.125       3.812       3.449       3.192       3.037       2.882    
        2.686       2.482       2.300       2.121       1.928       1.690       1.265      0.7620      0.3860       0.000    
  46    10.00       9.920       9.847       9.756       9.657       9.507       9.319       9.140       8.915       8.652    
        8.312       7.943       7.646       7.388       7.169       6.926       6.679       6.525       6.407       6.307    
        6.236       6.165       6.073       5.969       5.875       5.781       5.685       5.579       5.472       5.337    
        5.158       4.936       4.674       4.373       4.034       3.698       3.433       3.258       3.086       2.907    
        2.681       2.468       2.288       2.144       1.937       1.604       1.135      0.7178      0.3647       0.000    
  47    10.00       9.938       9.870       9.774       9.604       9.423       9.261       9.108       8.907       8.579    
        8.212       7.869       7.583       7.366       7.132       6.863       6.651       6.513       6.420       6.337    
        6.261       6.180       6.088       5.987       5.892       5.812       5.727       5.621       5.499       5.365    
        5.206       5.009       4.672       4.272       3.954       3.706       3.476       3.326       3.167       2.918    
        2.650       2.426       2.258       2.141       1.881       1.483       1.053      0.6907      0.3545       0.000    
  48    10.00       9.945       9.874       9.730       9.558       9.408       9.235       9.081       8.866       8.520    
        8.121       7.809       7.578       7.319       7.047       6.806       6.646       6.512       6.423       6.361    
        6.285       6.187       6.086       5.998       5.923       5.854       5.773       5.657       5.511       5.355    
        5.192       4.966       4.617       4.289       4.011       3.764       3.549       3.379       3.174       2.876    
        2.592       2.413       2.272       2.052       1.706       1.350       1.006      0.6956      0.3742       0.000    
  49    10.00       9.942       9.840       9.712       9.571       9.396       9.223       9.049       8.783       8.417    
        8.073       7.782       7.503       7.257       7.048       6.821       6.614       6.493       6.434       6.375    
        6.304       6.193       6.081       6.008       5.945       5.892       5.800       5.659       5.495       5.346    
        5.174       4.898       4.603       4.383       4.128       3.839       3.579       3.373       3.137       2.819    
        2.590       2.433       2.223       1.892       1.584       1.294      0.9942      0.6955      0.3730       0.000    
  50    10.00       9.935       9.829       9.697       9.569       9.406       9.213       8.996       8.716       8.426    
        8.067       7.702       7.443       7.247       7.070       6.815       6.586       6.495       6.442       6.383    
        6.312       6.197       6.083       6.012       5.959       5.909       5.806       5.645       5.478       5.336    
        5.160       4.876       4.647       4.450       4.183       3.896       3.623       3.342       3.020       2.754    
        2.636       2.457       2.134       1.802       1.572       1.291       1.008      0.6812      0.3037       0.000    

 HEAD WILL BE SAVED ON UNIT   51 AT END OF TIME STEP  48, STRESS PERIOD    2

 DRAWDOWN WILL BE SAVED ON UNIT   52 AT END OF TIME STEP  48, STRESS PERIOD    2
1
  VOLUMETRIC BUDGET FOR ENTIRE MODEL AT END OF TIME STEP 48 IN STRESS PERIOD   2
  ------------------------------------------------------------------------------

     CUMULATIVE VOLUMES      L**3       RATES FOR THIS TIME STEP      L**3/T
     ------------------                 ------------------------

           IN:                                      IN:
           ---                                      ---
             STORAGE =       23589.8594               STORAGE =         467.2050
       CONSTANT HEAD =       29626.4160         CONSTANT HEAD =         625.7228
               WELLS =           0.0000                 WELLS =           0.0000

            TOTAL IN =       53216.2734              TOTAL IN =        1092.9279

          OUT:                                     OUT:
          ----                                     ----
             STORAGE =       9.4320E-03               STORAGE =           0.0000
       CONSTANT HEAD =       29216.2598         CONSTANT HEAD =         592.9278
               WELLS =       24000.0000                 WELLS =         500.0000

           TOTAL OUT =       53216.2695             TOTAL OUT =        1092.9277

            IN - OUT =       3.9063E-03              IN - OUT =       1.2207E-04

 PERCENT DISCREPANCY =           0.00     PERCENT DISCREPANCY =           0.00






          TIME SUMMARY AT END OF TIME STEP  48 IN STRESS PERIOD    2
                    SECONDS     MINUTES      HOURS       DAYS        YEARS
                    -----------------------------------------------------------
   TIME STEP LENGTH  86400.      1440.0      24.000      1.0000     2.73785E-03
 STRESS PERIOD TIME 4.14720E+06  69120.      1152.0      48.000     0.13142    
         TOTAL TIME 4.23360E+06  70560.      1176.0      49.000     0.13415    
1
 
 SOLVING FOR HEAD 

 OUTPUT CONTROL FOR STRESS PERIOD    2   TIME STEP  49
    SAVE HEAD FOR ALL LAYERS
    SAVE DRAWDOWN FOR ALL LAYERS
    SAVE BUDGET
    PRINT HEAD FOR ALL LAYERS
    PRINT BUDGET
 UBDSV1 SAVING "         STORAGE" ON UNIT  53 AT TIME STEP 49, STRESS PERIOD   2
 UBDSV2 SAVING "   CONSTANT HEAD" ON UNIT  53 AT TIME STEP 49, STRESS PERIOD   2
 UBDSV1 SAVING "FLOW RIGHT FACE " ON UNIT  53 AT TIME STEP 49, STRESS PERIOD   2
 UBDSV1 SAVING "FLOW FRONT FACE " ON UNIT  53 AT TIME STEP 49, STRESS PERIOD   2
1
              HEAD IN LAYER   1 AT END OF TIME STEP  49 IN STRESS PERIOD    2
  ---------------------------------------------------------------------------

            1           2           3           4           5           6           7           8           9          10
           11          12          13          14          15          16          17          18          19          20
           21          22          23          24          25          26          27          28          29          30
           31          32          33          34          35          36          37          38          39          40
           41          42          43          44          45          46          47          48          49          50
 ........................................................................................................................
   1    10.00       9.957       9.897       9.828       9.761       9.684       9.612       9.541       9.451       9.363    
        9.294       9.227       9.158       9.092       8.984       8.854       8.708       8.594       8.535       8.466    
        8.384       8.318       8.254       8.180       8.081       7.885       7.664       7.510       7.359       7.217    
        7.032       6.736       6.357       5.936       5.499       5.034       4.573       4.190       3.689       3.144    
        2.697       2.269       1.795       1.398       1.153      0.9454      0.7811      0.6622      0.4445       0.000    
   2    10.00       9.956       9.902       9.832       9.764       9.697       9.625       9.531       9.432       9.360    
        9.301       9.243       9.186       9.103       8.979       8.843       8.707       8.593       8.533       8.456    
        8.373       8.324       8.272       8.195       8.069       7.878       7.677       7.518       7.366       7.228    
        7.021       6.711       6.313       5.833       5.367       4.917       4.518       4.148       3.638       3.111    
        2.663       2.182       1.749       1.438       1.207       1.029      0.8256      0.6445      0.3596       0.000    
   3    10.00       9.951       9.896       9.834       9.774       9.706       9.614       9.515       9.445       9.380    
        9.314       9.261       9.211       9.131       9.004       8.836       8.687       8.596       8.524       8.446    
        8.379       8.327       8.274       8.170       8.033       7.863       7.689       7.564       7.387       7.206    
        6.947       6.579       6.124       5.659       5.246       4.826       4.436       4.038       3.509       3.021    
        2.636       2.194       1.798       1.513       1.284       1.100      0.8589      0.5760      0.2611       0.000    
   4    10.00       9.951       9.897       9.837       9.769       9.690       9.595       9.519       9.459       9.392    
        9.334       9.290       9.234       9.143       9.020       8.841       8.686       8.600       8.520       8.450    
        8.378       8.314       8.246       8.137       8.001       7.849       7.691       7.537       7.380       7.175    
        6.849       6.362       5.879       5.526       5.182       4.750       4.280       3.814       3.391       3.023    
        2.663       2.253       1.881       1.624       1.367       1.133      0.8344      0.5181      0.2482       0.000    
   5    10.00       9.947       9.893       9.825       9.757       9.683       9.598       9.532       9.470       9.408    
        9.357       9.314       9.240       9.134       8.998       8.835       8.703       8.609       8.530       8.436    
        8.349       8.280       8.197       8.091       7.970       7.813       7.656       7.514       7.356       7.106    
        6.638       6.092       5.705       5.429       5.089       4.621       4.137       3.714       3.398       3.065    
        2.713       2.336       1.968       1.729       1.453       1.115      0.7596      0.4620      0.2324       0.000    
   6    10.00       9.940       9.876       9.819       9.757       9.676       9.604       9.548       9.483       9.423    
        9.376       9.324       9.230       9.111       8.992       8.855       8.722       8.614       8.509       8.400    
        8.313       8.231       8.159       8.063       7.908       7.754       7.628       7.483       7.263       6.884    
        6.367       5.872       5.551       5.312       5.005       4.543       4.061       3.705       3.439       3.138    
        2.817       2.485       2.109       1.789       1.424       1.052      0.6709      0.3987      0.2195       0.000    
   7    10.00       9.928       9.865       9.813       9.748       9.681       9.617       9.564       9.504       9.446    
        9.387       9.308       9.206       9.093       8.980       8.873       8.734       8.586       8.465       8.358    
        8.266       8.188       8.125       8.004       7.846       7.716       7.588       7.393       7.039       6.553    
        6.060       5.659       5.441       5.229       4.872       4.439       4.116       3.772       3.482       3.286    
        2.982       2.627       2.185       1.729       1.321      0.9135      0.5781      0.4017      0.2068       0.000    
   8    10.00       9.927       9.871       9.811       9.746       9.687       9.631       9.577       9.522       9.466    
        9.389       9.288       9.187       9.080       8.976       8.855       8.681       8.525       8.426       8.323    
        8.221       8.153       8.060       7.930       7.792       7.656       7.440       7.137       6.689       6.263    
        5.894       5.585       5.386       5.143       4.762       4.405       4.114       3.860       3.636       3.411    
        3.115       2.670       2.128       1.641       1.216      0.8553      0.6120      0.3934      0.1886       0.000    
   9    10.00       9.939       9.870       9.805       9.757       9.707       9.651       9.594       9.533       9.473    
        9.384       9.270       9.159       9.053       8.941       8.798       8.629       8.486       8.379       8.273    
        8.182       8.095       7.968       7.845       7.716       7.549       7.237       6.829       6.411       6.100    
        5.796       5.541       5.322       5.019       4.666       4.368       4.147       3.960       3.760       3.514    
        3.160       2.674       2.122       1.638       1.225      0.8743      0.6175      0.3970      0.2030       0.000    
  10    10.00       9.936       9.864       9.811       9.766       9.719       9.668       9.619       9.547       9.459    
        9.351       9.231       9.126       9.026       8.911       8.735       8.557       8.432       8.334       8.234    
        8.149       8.028       7.888       7.748       7.599       7.356       6.957       6.534       6.177       5.928    
        5.732       5.516       5.251       4.944       4.616       4.365       4.197       4.035       3.819       3.538    
        3.133       2.630       2.125       1.712       1.326      0.9622      0.6369      0.4216      0.2266       0.000    
  11    10.00       9.923       9.864       9.820       9.776       9.735       9.689       9.620       9.523       9.424    
        9.316       9.199       9.101       8.981       8.824       8.656       8.510       8.399       8.308       8.207    
        8.080       7.926       7.737       7.577       7.328       6.989       6.648       6.336       6.036       5.850    
        5.699       5.425       5.136       4.881       4.630       4.437       4.262       4.057       3.791       3.451    
        3.071       2.683       2.199       1.793       1.425       1.064      0.7157      0.4142      0.1737       0.000    
  12    10.00       9.925       9.871       9.825       9.787       9.745       9.691       9.596       9.483       9.388    
        9.287       9.166       9.046       8.904       8.766       8.611       8.470       8.373       8.273       8.134    
        7.923       7.693       7.470       7.247       6.914       6.658       6.463       6.159       5.910       5.769    
        5.597       5.344       5.104       4.869       4.688       4.504       4.284       4.034       3.712       3.372    
        3.050       2.700       2.234       1.835       1.489       1.112      0.7531      0.3907      0.1297       0.000    
  13    10.00       9.940       9.888       9.839       9.795       9.745       9.659       9.550       9.444       9.347    
        9.233       9.114       8.991       8.842       8.690       8.545       8.441       8.322       8.190       7.917    
        7.599       7.356       7.109       6.812       6.556       6.431       6.213       5.945       5.808       5.678    
        5.475       5.256       5.067       4.891       4.735       4.565       4.304       3.967       3.659       3.339    
        3.032       2.670       2.171       1.800       1.503       1.103      0.6922      0.3373      0.1032       0.000    
  14    10.00       9.953       9.910       9.857       9.796       9.713       9.603       9.493       9.398       9.291    
        9.174       9.063       8.923       8.767       8.633       8.506       8.351       8.197       7.936       7.530    
        7.224       6.987       6.659       6.426       6.306       6.193       5.977       5.811       5.680       5.545    
        5.369       5.209       5.074       4.922       4.754       4.586       4.293       3.927       3.610       3.281    
        2.968       2.519       2.044       1.753       1.416       1.056      0.6930      0.3123      8.8948E-02   0.000    
  15    10.00       9.963       9.917       9.859       9.786       9.666       9.532       9.435       9.346       9.241    
        9.149       9.035       8.855       8.678       8.554       8.359       8.162       7.999       7.601       7.157    
        6.880       6.565       6.287       6.198       6.133       5.992       5.809       5.653       5.551       5.447    
        5.311       5.195       5.083       4.949       4.785       4.581       4.241       3.838       3.505       3.206    
        2.871       2.419       2.046       1.683       1.283      0.9658      0.6192      0.2863      9.6857E-02   0.000    
  16    10.00       9.969       9.920       9.849       9.742       9.599       9.480       9.402       9.323       9.218    
        9.108       8.940       8.717       8.546       8.368       8.143       8.010       7.683       7.123       6.734    
        6.488       6.218       6.117       6.064       5.947       5.766       5.623       5.544       5.492       5.402    
        5.288       5.182       5.088       4.954       4.757       4.484       4.098       3.752       3.490       3.176    
        2.788       2.345       1.944       1.550       1.206      0.8552      0.5554      0.2891      0.1032       0.000    
  17    10.00       9.965       9.906       9.811       9.690       9.542       9.437       9.370       9.276       9.164    
        8.969       8.734       8.547       8.372       8.143       7.918       7.641       7.119       6.650       6.406    
        6.212       6.067       5.996       5.876       5.695       5.566       5.523       5.497       5.445       5.354    
        5.254       5.161       5.063       4.929       4.650       4.295       3.997       3.773       3.521       3.143    
        2.654       2.221       1.849       1.480       1.081      0.7134      0.4733      0.2625      0.1093       0.000    
  18    10.00       9.951       9.875       9.766       9.606       9.482       9.408       9.308       9.194       9.028    
        8.780       8.584       8.408       8.142       7.843       7.533       7.143       6.687       6.399       6.211    
        6.064       5.937       5.823       5.661       5.536       5.495       5.477       5.451       5.387       5.300    
        5.215       5.123       4.998       4.793       4.507       4.222       3.990       3.807       3.491       3.028    
        2.558       2.106       1.732       1.386       1.004      0.6580      0.4001      0.2193      0.1024       0.000    
  19    10.00       9.934       9.847       9.688       9.529       9.457       9.363       9.234       9.096       8.906    
        8.686       8.492       8.211       7.832       7.519       7.213       6.794       6.422       6.239       6.116    
        5.960       5.801       5.672       5.536       5.468       5.447       5.424       5.378       5.305       5.231    
        5.150       5.049       4.887       4.678       4.446       4.205       4.008       3.774       3.327       2.872    
        2.500       2.039       1.635       1.297      0.9219      0.5929      0.3600      0.2082      0.1042       0.000    
  20    10.00       9.915       9.782       9.616       9.500       9.417       9.313       9.175       9.011       8.835    
        8.605       8.317       7.935       7.586       7.308       6.942       6.560       6.369       6.214       6.047    
        5.878       5.711       5.554       5.453       5.407       5.369       5.318       5.271       5.202       5.136    
        5.059       4.959       4.798       4.616       4.409       4.205       3.996       3.635       3.166       2.780    
        2.369       1.922       1.564       1.226      0.8766      0.5328      0.3127      0.2100      0.1061       0.000    
  21    10.00       9.865       9.729       9.593       9.472       9.378       9.265       9.089       8.922       8.751    
        8.452       8.088       7.729       7.441       7.143       6.791       6.518       6.351       6.174       5.991    
        5.786       5.596       5.457       5.354       5.277       5.210       5.168       5.127       5.056       5.006    
        4.952       4.850       4.714       4.558       4.375       4.180       3.887       3.522       3.116       2.658    
        2.245       1.825       1.515       1.206      0.7617      0.4499      0.3204      0.2337      0.1123       0.000    
  22    10.00       9.845       9.685       9.553       9.450       9.338       9.171       8.996       8.847       8.621    
        8.305       7.924       7.613       7.374       7.047       6.722       6.491       6.319       6.143       5.923    
        5.687       5.495       5.315       5.156       5.053       5.005       4.973       4.919       4.895       4.866    
        4.825       4.746       4.645       4.501       4.332       4.144       3.838       3.474       2.997       2.546    
        2.189       1.808       1.464       1.005      0.6268      0.4508      0.3388      0.2253      8.9457E-02   0.000    
  23    10.00       9.811       9.654       9.545       9.432       9.266       9.077       8.939       8.751       8.515    
        8.193       7.853       7.614       7.311       6.958       6.675       6.480       6.323       6.124       5.860    
        5.608       5.382       5.145       4.862       4.612       4.565       4.638       4.674       4.721       4.735    
        4.716       4.662       4.574       4.458       4.297       4.100       3.816       3.362       2.860       2.488    
        2.146       1.713       1.218      0.8203      0.6110      0.4623      0.3381      0.2144      9.9839E-02   0.000    
  24    10.00       9.784       9.671       9.545       9.385       9.202       9.053       8.903       8.718       8.446    
        8.149       7.886       7.622       7.258       6.885       6.661       6.500       6.336       6.096       5.830    
        5.580       5.321       4.958       4.309       3.332       3.663       4.113       4.395       4.545       4.604    
        4.617       4.581       4.519       4.401       4.245       4.046       3.693       3.214       2.788       2.393    
        1.976       1.518       1.080      0.7820      0.6076      0.4593      0.3301      0.2501      0.1376       0.000    
  25    10.00       9.812       9.692       9.540       9.372       9.208       9.056       8.913       8.687       8.415    
        8.167       7.913       7.590       7.191       6.902       6.698       6.519       6.326       6.103       5.856    
        5.586       5.328       4.667       3.284      0.1438       2.696       3.662       4.145       4.399       4.512    
        4.541       4.523       4.459       4.322       4.157       3.915       3.548       3.088       2.702       2.275    
        1.794       1.362       1.004      0.7733      0.6316      0.4937      0.3607      0.2658      0.1735       0.000    
  26    10.00       9.839       9.726       9.562       9.389       9.245       9.088       8.908       8.676       8.465    
        8.251       7.914       7.507       7.168       6.957       6.773       6.560       6.310       6.073       5.862    
        5.654       5.371       4.763       3.761       2.706       3.226       3.786       4.138       4.353       4.472    
        4.496       4.476       4.393       4.258       4.099       3.836       3.355       2.930       2.605       2.083    
        1.561       1.203      0.9934      0.8384      0.6880      0.5351      0.3967      0.2906      0.1735       0.000    
  27    10.00       9.874       9.737       9.597       9.443       9.277       9.120       8.946       8.739       8.538    
        8.252       7.855       7.503       7.227       7.041       6.835       6.556       6.281       6.089       5.921    
        5.747       5.456       5.001       4.449       3.863       3.885       4.083       4.267       4.403       4.470    
        4.476       4.445       4.364       4.227       4.011       3.598       3.143       2.809       2.307       1.794    
        1.420       1.187       1.035      0.9035      0.7648      0.5887      0.4238      0.3172      0.2132       0.000    
  28    10.00       9.886       9.769       9.636       9.496       9.339       9.177       9.002       8.808       8.576    
        8.225       7.865       7.560       7.296       7.104       6.896       6.657       6.388       6.134       5.967    
        5.812       5.604       5.302       4.891       4.522       4.357       4.369       4.452       4.484       4.499    
        4.477       4.429       4.331       4.136       3.814       3.381       2.994       2.536       2.039       1.699    
        1.427       1.235       1.084      0.9542      0.8117      0.6431      0.4800      0.3607      0.2199       0.000    
  29    10.00       9.891       9.780       9.681       9.546       9.402       9.247       9.072       8.866       8.556    
        8.212       7.897       7.608       7.390       7.169       6.945       6.727       6.513       6.267       6.052    
        5.887       5.711       5.503       5.252       4.917       4.737       4.668       4.636       4.613       4.558    
        4.488       4.390       4.263       3.996       3.609       3.217       2.813       2.350       1.972       1.725    
        1.503       1.292       1.127       1.000      0.8613      0.6886      0.5206      0.3811      0.2221       0.000    
  30    10.00       9.901       9.809       9.721       9.604       9.472       9.334       9.140       8.884       8.568    
        8.214       7.895       7.654       7.438       7.221       7.004       6.822       6.638       6.418       6.188    
        5.991       5.830       5.650       5.469       5.254       5.056       4.973       4.845       4.759       4.633    
        4.486       4.319       4.132       3.846       3.529       3.157       2.739       2.313       2.036       1.809    
        1.558       1.350       1.192       1.040      0.8838      0.7309      0.5547      0.3971      0.2400       0.000    
  31    10.00       9.917       9.838       9.756       9.671       9.568       9.417       9.189       8.893       8.566    
        8.225       7.928       7.699       7.479       7.286       7.085       6.895       6.755       6.543       6.323    
        6.134       5.966       5.808       5.639       5.497       5.341       5.187       5.037       4.870       4.686    
        4.462       4.241       4.044       3.815       3.497       3.109       2.710       2.359       2.135       1.931    
        1.670       1.431       1.245       1.085      0.9293      0.7672      0.5905      0.4243      0.2335       0.000    
  32    10.00       9.930       9.870       9.798       9.716       9.622       9.473       9.215       8.938       8.640    
        8.281       7.974       7.746       7.539       7.344       7.176       7.008       6.832       6.660       6.452    
        6.252       6.070       5.912       5.753       5.624       5.515       5.344       5.159       4.932       4.683    
        4.445       4.229       4.018       3.796       3.493       3.142       2.807       2.500       2.260       2.030    
        1.787       1.536       1.338       1.151      0.9725      0.8258      0.6448      0.4249      0.2110       0.000    
  33    10.00       9.940       9.891       9.833       9.753       9.647       9.458       9.208       8.977       8.702    
        8.354       8.049       7.814       7.589       7.408       7.264       7.117       6.942       6.752       6.559    
        6.351       6.156       5.970       5.816       5.712       5.603       5.424       5.189       4.952       4.717    
        4.484       4.284       4.072       3.792       3.505       3.187       2.899       2.652       2.401       2.149    
        1.922       1.685       1.467       1.270       1.071      0.8971      0.6936      0.4342      0.2045       0.000    
  34    10.00       9.946       9.913       9.863       9.764       9.618       9.436       9.252       9.015       8.717    
        8.411       8.115       7.864       7.639       7.477       7.364       7.208       7.032       6.824       6.641    
        6.450       6.220       6.034       5.893       5.786       5.650       5.439       5.229       4.986       4.728    
        4.532       4.355       4.160       3.883       3.587       3.296       3.030       2.807       2.549       2.295    
        2.077       1.858       1.627       1.425       1.215       1.009      0.7500      0.4819      0.2541       0.000    
  35    10.00       9.955       9.917       9.854       9.732       9.578       9.445       9.289       9.071       8.752    
        8.426       8.153       7.900       7.706       7.569       7.442       7.280       7.085       6.884       6.680    
        6.496       6.290       6.101       5.967       5.850       5.716       5.494       5.240       4.982       4.737    
        4.590       4.421       4.211       3.999       3.744       3.434       3.164       2.982       2.720       2.435    
        2.229       2.010       1.789       1.591       1.355       1.126      0.8650      0.5774      0.2885       0.000    
  36    10.00       9.953       9.899       9.828       9.707       9.560       9.441       9.295       9.077       8.779    
        8.441       8.144       7.954       7.801       7.672       7.515       7.320       7.130       6.915       6.660    
        6.465       6.301       6.139       6.022       5.909       5.747       5.510       5.246       4.981       4.759    
        4.615       4.471       4.276       4.074       3.855       3.572       3.302       3.101       2.870       2.562    
        2.331       2.109       1.884       1.720       1.493       1.239      0.9781      0.6775      0.3446       0.000    
  37    10.00       9.938       9.879       9.801       9.679       9.545       9.411       9.270       9.070       8.750    
        8.407       8.164       8.046       7.900       7.730       7.573       7.351       7.119       6.853       6.598    
        6.448       6.318       6.165       6.043       5.911       5.718       5.496       5.220       4.986       4.819    
        4.669       4.511       4.309       4.132       3.904       3.633       3.419       3.224       2.967       2.660    
        2.383       2.167       1.987       1.804       1.588       1.352       1.102      0.7648      0.4144       0.000    
  38    10.00       9.931       9.855       9.772       9.659       9.528       9.379       9.232       9.020       8.723    
        8.461       8.265       8.115       7.983       7.793       7.551       7.299       7.018       6.732       6.568    
        6.452       6.293       6.147       6.042       5.898       5.689       5.421       5.173       5.035       4.899    
        4.733       4.553       4.359       4.177       3.954       3.704       3.511       3.312       3.006       2.685    
        2.445       2.244       2.061       1.878       1.686       1.458       1.199      0.8751      0.4541       0.000    
  39    10.00       9.912       9.835       9.753       9.642       9.495       9.335       9.180       8.986       8.746    
        8.541       8.395       8.227       8.039       7.761       7.448       7.135       6.835       6.661       6.557    
        6.399       6.229       6.123       6.025       5.889       5.648       5.382       5.218       5.095       4.952    
        4.775       4.602       4.405       4.209       4.019       3.811       3.589       3.357       3.041       2.725    
        2.472       2.270       2.128       1.982       1.774       1.540       1.280      0.9273      0.4541       0.000    
  40    10.00       9.898       9.822       9.739       9.627       9.474       9.309       9.152       8.987       8.788    
        8.619       8.493       8.284       7.982       7.629       7.278       6.961       6.756       6.642       6.516    
        6.342       6.195       6.100       5.983       5.825       5.630       5.452       5.286       5.139       5.005    
        4.841       4.648       4.447       4.262       4.086       3.875       3.636       3.402       3.059       2.713    
        2.484       2.317       2.169       2.043       1.832       1.572       1.333      0.9635      0.4757       0.000    
  41    10.00       9.905       9.817       9.725       9.601       9.461       9.317       9.176       9.018       8.840    
        8.680       8.525       8.242       7.857       7.467       7.149       6.901       6.728       6.611       6.466    
        6.290       6.165       6.060       5.935       5.796       5.655       5.523       5.364       5.189       5.034    
        4.886       4.701       4.497       4.329       4.144       3.938       3.693       3.367       2.987       2.721    
        2.535       2.360       2.224       2.065       1.843       1.586       1.374       1.022      0.5237       0.000    
  42    10.00       9.908       9.810       9.725       9.616       9.486       9.342       9.185       9.044       8.907    
        8.714       8.437       8.081       7.684       7.333       7.089       6.875       6.712       6.575       6.403    
        6.241       6.125       6.018       5.928       5.810       5.706       5.583       5.401       5.214       5.076    
        4.944       4.744       4.525       4.367       4.209       3.978       3.663       3.272       2.935       2.732    
        2.584       2.435       2.266       2.061       1.830       1.623       1.409       1.065      0.5479       0.000    
  43    10.00       9.909       9.819       9.732       9.646       9.530       9.386       9.231       9.076       8.880    
        8.602       8.283       7.919       7.537       7.266       7.062       6.860       6.690       6.525       6.354    
        6.204       6.095       6.015       5.946       5.842       5.729       5.610       5.432       5.264       5.151    
        4.984       4.764       4.558       4.402       4.220       3.937       3.567       3.190       2.956       2.795    
        2.638       2.478       2.272       2.050       1.839       1.639       1.447       1.061      0.4782       0.000    
  44    10.00       9.904       9.821       9.745       9.650       9.562       9.439       9.250       9.042       8.769    
        8.488       8.152       7.754       7.477       7.267       7.042       6.822       6.629       6.450       6.298    
        6.190       6.104       6.029       5.957       5.868       5.753       5.612       5.472       5.342       5.198    
        5.038       4.839       4.607       4.386       4.172       3.884       3.498       3.172       2.984       2.829    
        2.678       2.501       2.295       2.096       1.876       1.654       1.403      0.9090      0.4017       0.000    
  45    10.00       9.903       9.835       9.749       9.659       9.580       9.401       9.185       8.939       8.671    
        8.434       8.032       7.662       7.455       7.241       6.996       6.747       6.550       6.393       6.283    
        6.206       6.130       6.052       5.966       5.869       5.764       5.647       5.527       5.421       5.274    
        5.082       4.869       4.634       4.367       4.124       3.811       3.448       3.192       3.037       2.881    
        2.686       2.481       2.300       2.121       1.928       1.689       1.265      0.7619      0.3859       0.000    
  46    10.00       9.920       9.847       9.755       9.657       9.507       9.318       9.139       8.915       8.652    
        8.312       7.942       7.645       7.386       7.168       6.925       6.677       6.523       6.405       6.305    
        6.234       6.164       6.071       5.968       5.873       5.779       5.683       5.577       5.471       5.336    
        5.157       4.935       4.673       4.372       4.033       3.697       3.432       3.257       3.085       2.906    
        2.681       2.468       2.288       2.143       1.937       1.603       1.134      0.7177      0.3647       0.000    
  47    10.00       9.938       9.870       9.774       9.603       9.422       9.261       9.108       8.907       8.578    
        8.211       7.868       7.582       7.365       7.131       6.862       6.649       6.512       6.419       6.336    
        6.260       6.178       6.086       5.985       5.891       5.810       5.725       5.620       5.497       5.363    
        5.205       5.008       4.670       4.271       3.953       3.705       3.475       3.325       3.167       2.918    
        2.650       2.426       2.258       2.140       1.881       1.483       1.053      0.6906      0.3545       0.000    
  48    10.00       9.945       9.874       9.730       9.557       9.407       9.235       9.080       8.866       8.520    
        8.120       7.808       7.577       7.318       7.046       6.805       6.644       6.511       6.421       6.360    
        6.284       6.186       6.085       5.996       5.921       5.853       5.771       5.655       5.510       5.354    
        5.190       4.965       4.616       4.288       4.010       3.763       3.548       3.378       3.174       2.876    
        2.592       2.412       2.272       2.052       1.705       1.350       1.006      0.6955      0.3742       0.000    
  49    10.00       9.942       9.840       9.711       9.570       9.396       9.222       9.049       8.783       8.416    
        8.072       7.781       7.502       7.256       7.046       6.820       6.613       6.492       6.432       6.373    
        6.302       6.191       6.079       6.006       5.944       5.890       5.799       5.658       5.494       5.344    
        5.173       4.897       4.602       4.382       4.128       3.839       3.578       3.372       3.137       2.819    
        2.590       2.433       2.223       1.892       1.584       1.293      0.9942      0.6955      0.3730       0.000    
  50    10.00       9.935       9.829       9.697       9.569       9.406       9.212       8.995       8.715       8.426    
        8.066       7.701       7.442       7.246       7.069       6.813       6.584       6.494       6.441       6.381    
        6.310       6.196       6.081       6.010       5.958       5.908       5.804       5.643       5.477       5.335    
        5.159       4.875       4.647       4.449       4.183       3.896       3.623       3.342       3.020       2.753    
        2.635       2.457       2.134       1.802       1.572       1.291       1.008      0.6812      0.3037       0.000    

 HEAD WILL BE SAVED ON UNIT   51 AT END OF TIME STEP  49, STRESS PERIOD    2

 DRAWDOWN WILL BE SAVED ON UNIT   52 AT END OF TIME STEP  49, STRESS PERIOD    2
1
  VOLUMETRIC BUDGET FOR ENTIRE MODEL AT END OF TIME STEP 49 IN STRESS PERIOD   2
  ------------------------------------------------------------------------------

     CUMULATIVE VOLUMES      L**3       RATES FOR THIS TIME STEP      L**3/T
     ------------------                 ------------------------

           IN:                                      IN:
           ---                                      ---
             STORAGE =       24055.3027               STORAGE =         465.4424
       CONSTANT HEAD =       30253.5801         CONSTANT HEAD =         627.1638
               WELLS =           0.0000                 WELLS =           0.0000

            TOTAL IN =       54308.8828              TOTAL IN =        1092.6062

          OUT:                                     OUT:
          ----                                     ----
             STORAGE =       9.4320E-03               STORAGE =           0.0000
       CONSTANT HEAD =       29808.8652         CONSTANT HEAD =         592.6059
               WELLS =       24500.0000                 WELLS =         500.0000

           TOTAL OUT =       54308.8750             TOTAL OUT =        1092.6060

            IN - OUT =       7.8125E-03              IN - OUT =       2.4414E-04

 PERCENT DISCREPANCY =           0.00     PERCENT DISCREPANCY =           0.00






          TIME SUMMARY AT END OF TIME STEP  49 IN STRESS PERIOD    2
                    SECONDS     MINUTES      HOURS       DAYS        YEARS
                    -----------------------------------------------------------
   TIME STEP LENGTH  86400.      1440.0      24.000      1.0000     2.73785E-03
 STRESS PERIOD TIME 4.23360E+06  70560.      1176.0      49.000     0.13415    
         TOTAL TIME 4.32000E+06  72000.      1200.0      50.000     0.13689    
1
 
 SOLVING FOR HEAD 

 OUTPUT CONTROL FOR STRESS PERIOD    2   TIME STEP  50
    SAVE HEAD FOR ALL LAYERS
    SAVE DRAWDOWN FOR ALL LAYERS
    SAVE BUDGET
    PRINT HEAD FOR ALL LAYERS
    PRINT BUDGET
 UBDSV1 SAVING "         STORAGE" ON UNIT  53 AT TIME STEP 50, STRESS PERIOD   2
 UBDSV2 SAVING "   CONSTANT HEAD" ON UNIT  53 AT TIME STEP 50, STRESS PERIOD   2
 UBDSV1 SAVING "FLOW RIGHT FACE " ON UNIT  53 AT TIME STEP 50, STRESS PERIOD   2
 UBDSV1 SAVING "FLOW FRONT FACE " ON UNIT  53 AT TIME STEP 50, STRESS PERIOD   2
1
              HEAD IN LAYER   1 AT END OF TIME STEP  50 IN STRESS PERIOD    2
  ---------------------------------------------------------------------------

            1           2           3           4           5           6           7           8           9          10
           11          12          13          14          15          16          17          18          19          20
           21          22          23          24          25          26          27          28          29          30
           31          32          33          34          35          36          37          38          39          40
           41          42          43          44          45          46          47          48          49          50
 ........................................................................................................................
   1    10.00       9.957       9.897       9.827       9.760       9.684       9.611       9.540       9.450       9.361    
        9.293       9.225       9.156       9.090       8.981       8.851       8.705       8.591       8.531       8.462    
        8.380       8.315       8.251       8.176       8.077       7.882       7.661       7.507       7.356       7.214    
        7.029       6.733       6.354       5.933       5.496       5.031       4.571       4.188       3.687       3.143    
        2.696       2.268       1.794       1.397       1.152      0.9449      0.7807      0.6618      0.4442       0.000    
   2    10.00       9.956       9.901       9.832       9.763       9.696       9.624       9.530       9.431       9.358    
        9.299       9.242       9.184       9.101       8.977       8.840       8.704       8.590       8.529       8.452    
        8.370       8.321       8.269       8.191       8.065       7.874       7.674       7.515       7.362       7.224    
        7.018       6.708       6.310       5.830       5.364       4.915       4.516       4.146       3.636       3.110    
        2.661       2.181       1.748       1.437       1.207       1.029      0.8251      0.6441      0.3594       0.000    
   3    10.00       9.951       9.896       9.834       9.774       9.705       9.613       9.514       9.444       9.378    
        9.312       9.260       9.209       9.129       9.002       8.833       8.684       8.592       8.521       8.443    
        8.375       8.324       8.270       8.166       8.030       7.859       7.685       7.560       7.383       7.203    
        6.943       6.575       6.121       5.656       5.243       4.824       4.434       4.036       3.507       3.019    
        2.635       2.192       1.797       1.512       1.284       1.099      0.8584      0.5756      0.2610       0.000    
   4    10.00       9.951       9.897       9.836       9.768       9.689       9.594       9.518       9.458       9.390    
        9.332       9.289       9.232       9.141       9.018       8.838       8.683       8.597       8.517       8.447    
        8.374       8.310       8.242       8.133       7.998       7.845       7.687       7.533       7.376       7.171    
        6.845       6.359       5.876       5.522       5.179       4.747       4.278       3.811       3.389       3.021    
        2.662       2.252       1.880       1.623       1.367       1.132      0.8340      0.5178      0.2480       0.000    
   5    10.00       9.947       9.893       9.825       9.756       9.682       9.597       9.531       9.469       9.406    
        9.355       9.313       9.238       9.132       8.996       8.832       8.700       8.606       8.527       8.433    
        8.346       8.276       8.193       8.087       7.966       7.809       7.652       7.510       7.352       7.102    
        6.633       6.088       5.701       5.425       5.085       4.618       4.134       3.711       3.395       3.063    
        2.711       2.334       1.966       1.728       1.452       1.114      0.7592      0.4617      0.2322       0.000    
   6    10.00       9.940       9.875       9.819       9.756       9.675       9.603       9.547       9.481       9.422    
        9.374       9.322       9.228       9.109       8.989       8.853       8.720       8.611       8.506       8.396    
        8.309       8.227       8.155       8.059       7.904       7.750       7.624       7.479       7.259       6.880    
        6.362       5.867       5.546       5.308       5.000       4.539       4.058       3.702       3.436       3.136    
        2.814       2.483       2.107       1.788       1.423       1.051      0.6705      0.3985      0.2194       0.000    
   7    10.00       9.928       9.865       9.813       9.748       9.681       9.616       9.563       9.502       9.444    
        9.385       9.307       9.204       9.091       8.978       8.870       8.731       8.582       8.461       8.354    
        8.262       8.183       8.121       8.000       7.841       7.712       7.583       7.388       7.033       6.548    
        6.054       5.654       5.436       5.224       4.868       4.435       4.112       3.768       3.478       3.283    
        2.979       2.625       2.184       1.727       1.320      0.9129      0.5777      0.4014      0.2067       0.000    
   8    10.00       9.927       9.871       9.811       9.746       9.686       9.630       9.576       9.520       9.465    
        9.387       9.287       9.185       9.078       8.973       8.852       8.677       8.521       8.422       8.319    
        8.216       8.149       8.055       7.925       7.787       7.651       7.434       7.131       6.683       6.257    
        5.888       5.579       5.380       5.137       4.757       4.400       4.109       3.856       3.632       3.408    
        3.112       2.668       2.126       1.639       1.215      0.8547      0.6116      0.3932      0.1885       0.000    
   9    10.00       9.939       9.870       9.805       9.756       9.707       9.650       9.593       9.531       9.472    
        9.382       9.268       9.157       9.050       8.938       8.795       8.626       8.482       8.375       8.268    
        8.177       8.090       7.963       7.839       7.711       7.543       7.230       6.823       6.403       6.093    
        5.789       5.535       5.316       5.013       4.661       4.362       4.142       3.955       3.756       3.511    
        3.157       2.672       2.120       1.637       1.224      0.8736      0.6171      0.3967      0.2029       0.000    
  10    10.00       9.936       9.864       9.810       9.766       9.718       9.667       9.618       9.546       9.458    
        9.349       9.229       9.123       9.023       8.908       8.732       8.553       8.428       8.329       8.230    
        8.144       8.023       7.883       7.743       7.593       7.350       6.949       6.527       6.169       5.920    
        5.724       5.509       5.244       4.937       4.609       4.359       4.191       4.030       3.815       3.534    
        3.129       2.627       2.123       1.711       1.325      0.9615      0.6365      0.4213      0.2265       0.000    
  11    10.00       9.923       9.864       9.820       9.776       9.735       9.688       9.619       9.522       9.423    
        9.314       9.196       9.098       8.978       8.821       8.652       8.505       8.394       8.304       8.202    
        8.075       7.920       7.730       7.570       7.320       6.980       6.639       6.327       6.027       5.841    
        5.690       5.417       5.128       4.874       4.623       4.430       4.256       4.051       3.786       3.447    
        3.067       2.680       2.197       1.791       1.424       1.064      0.7152      0.4139      0.1736       0.000    
  12    10.00       9.925       9.871       9.824       9.787       9.744       9.691       9.594       9.481       9.386    
        9.285       9.163       9.043       8.900       8.762       8.607       8.465       8.369       8.268       8.129    
        7.917       7.687       7.463       7.239       6.905       6.648       6.453       6.149       5.901       5.759    
        5.588       5.335       5.096       4.861       4.680       4.497       4.278       4.029       3.708       3.368    
        3.047       2.697       2.232       1.833       1.488       1.111      0.7525      0.3904      0.1296       0.000    
  13    10.00       9.940       9.888       9.839       9.794       9.744       9.658       9.548       9.442       9.345    
        9.231       9.111       8.987       8.838       8.686       8.540       8.436       8.317       8.185       7.911    
        7.591       7.347       7.099       6.801       6.545       6.420       6.202       5.934       5.798       5.668    
        5.465       5.246       5.057       4.882       4.727       4.557       4.297       3.961       3.653       3.334    
        3.028       2.667       2.168       1.799       1.502       1.102      0.6917      0.3371      0.1032       0.000    
  14    10.00       9.953       9.909       9.857       9.795       9.712       9.602       9.491       9.395       9.289    
        9.172       9.060       8.919       8.763       8.628       8.501       8.345       8.190       7.929       7.522    
        7.214       6.977       6.648       6.414       6.293       6.180       5.965       5.798       5.668       5.533    
        5.357       5.199       5.064       4.912       4.745       4.578       4.285       3.921       3.604       3.276    
        2.964       2.516       2.042       1.751       1.414       1.055      0.6924      0.3120      8.8872E-02   0.000    
  15    10.00       9.963       9.917       9.859       9.785       9.665       9.530       9.433       9.344       9.238    
        9.146       9.031       8.851       8.673       8.549       8.353       8.155       7.992       7.592       7.147    
        6.868       6.553       6.274       6.185       6.121       5.979       5.796       5.640       5.539       5.434    
        5.299       5.183       5.073       4.939       4.775       4.572       4.233       3.832       3.499       3.201    
        2.867       2.416       2.043       1.681       1.281      0.9648      0.6186      0.2860      9.6767E-02   0.000    
  16    10.00       9.969       9.920       9.849       9.741       9.597       9.478       9.400       9.321       9.215    
        9.104       8.936       8.712       8.540       8.362       8.136       8.002       7.674       7.112       6.721    
        6.475       6.204       6.103       6.051       5.934       5.752       5.609       5.530       5.479       5.389    
        5.275       5.170       5.077       4.943       4.747       4.475       4.090       3.745       3.484       3.171    
        2.784       2.342       1.942       1.548       1.205      0.8543      0.5548      0.2888      0.1031       0.000    
  17    10.00       9.965       9.906       9.811       9.689       9.541       9.435       9.367       9.273       9.161    
        8.965       8.729       8.541       8.365       8.135       7.909       7.631       7.107       6.637       6.392    
        6.198       6.053       5.982       5.861       5.681       5.552       5.509       5.483       5.432       5.340    
        5.241       5.149       5.051       4.918       4.639       4.285       3.989       3.766       3.514       3.138    
        2.649       2.218       1.847       1.478       1.080      0.7126      0.4728      0.2622      0.1092       0.000    
  18    10.00       9.950       9.875       9.765       9.605       9.480       9.405       9.305       9.191       9.023    
        8.775       8.578       8.401       8.134       7.833       7.522       7.131       6.673       6.385       6.196    
        6.049       5.922       5.809       5.646       5.521       5.480       5.462       5.436       5.373       5.286    
        5.202       5.110       4.986       4.781       4.496       4.212       3.981       3.799       3.484       3.023    
        2.554       2.103       1.730       1.384       1.002      0.6572      0.3997      0.2191      0.1023       0.000    
  19    10.00       9.934       9.847       9.686       9.527       9.454       9.360       9.230       9.092       8.901    
        8.680       8.485       8.203       7.822       7.508       7.201       6.781       6.407       6.224       6.101    
        5.945       5.785       5.657       5.520       5.453       5.432       5.408       5.363       5.290       5.216    
        5.136       5.035       4.874       4.666       4.435       4.195       3.998       3.766       3.320       2.867    
        2.496       2.036       1.632       1.296      0.9207      0.5922      0.3596      0.2079      0.1041       0.000    
  20    10.00       9.914       9.781       9.615       9.498       9.414       9.310       9.171       9.006       8.829    
        8.598       8.309       7.925       7.575       7.296       6.929       6.545       6.354       6.199       6.031    
        5.863       5.696       5.538       5.437       5.391       5.354       5.302       5.256       5.187       5.121    
        5.044       4.945       4.785       4.603       4.397       4.195       3.987       3.627       3.160       2.775    
        2.365       1.919       1.561       1.224      0.8754      0.5322      0.3124      0.2098      0.1060       0.000    
  21    10.00       9.865       9.728       9.592       9.469       9.376       9.261       9.085       8.917       8.745    
        8.445       8.079       7.718       7.430       7.130       6.777       6.503       6.336       6.158       5.975    
        5.770       5.580       5.441       5.338       5.261       5.194       5.152       5.111       5.040       4.991    
        4.937       4.835       4.700       4.545       4.363       4.169       3.877       3.513       3.109       2.653    
        2.241       1.822       1.513       1.204      0.7608      0.4493      0.3200      0.2335      0.1122       0.000    
  22    10.00       9.845       9.684       9.551       9.447       9.335       9.167       8.991       8.842       8.614    
        8.297       7.914       7.602       7.362       7.033       6.708       6.476       6.304       6.128       5.907    
        5.671       5.479       5.299       5.140       5.037       4.989       4.957       4.903       4.879       4.850    
        4.809       4.731       4.630       4.487       4.319       4.132       3.828       3.466       2.990       2.541    
        2.185       1.805       1.462       1.003      0.6260      0.4502      0.3385      0.2251      8.9363E-02   0.000    
  23    10.00       9.810       9.653       9.543       9.429       9.262       9.073       8.934       8.745       8.508    
        8.184       7.843       7.602       7.299       6.945       6.661       6.466       6.307       6.109       5.844    
        5.592       5.366       5.128       4.846       4.595       4.548       4.622       4.657       4.704       4.718    
        4.699       4.646       4.559       4.444       4.284       4.088       3.805       3.354       2.854       2.484    
        2.142       1.710       1.217      0.8193      0.6103      0.4618      0.3378      0.2142      9.9739E-02   0.000    
  24    10.00       9.784       9.670       9.543       9.382       9.198       9.049       8.898       8.712       8.438    
        8.140       7.876       7.610       7.246       6.871       6.647       6.485       6.321       6.081       5.814    
        5.564       5.304       4.941       4.292       3.314       3.646       4.095       4.378       4.528       4.587    
        4.600       4.565       4.504       4.387       4.232       4.034       3.683       3.207       2.782       2.389    
        1.973       1.515       1.079      0.7812      0.6069      0.4589      0.3298      0.2498      0.1375       0.000    
  25    10.00       9.811       9.691       9.538       9.369       9.204       9.051       8.908       8.680       8.408    
        8.158       7.903       7.579       7.179       6.888       6.684       6.504       6.311       6.087       5.840    
        5.570       5.311       4.650       3.267      0.1248       2.678       3.644       4.127       4.382       4.495    
        4.524       4.507       4.444       4.308       4.144       3.903       3.539       3.081       2.696       2.271    
        1.791       1.360       1.003      0.7725      0.6310      0.4932      0.3604      0.2655      0.1733       0.000    
  26    10.00       9.839       9.725       9.560       9.386       9.242       9.084       8.903       8.670       8.458    
        8.243       7.904       7.496       7.155       6.943       6.759       6.545       6.295       6.058       5.846    
        5.638       5.355       4.746       3.743       2.688       3.208       3.768       4.120       4.335       4.455    
        4.480       4.459       4.378       4.244       4.086       3.824       3.347       2.924       2.599       2.079    
        1.558       1.202      0.9923      0.8376      0.6873      0.5346      0.3963      0.2903      0.1733       0.000    
  27    10.00       9.874       9.736       9.596       9.440       9.273       9.116       8.941       8.733       8.531    
        8.244       7.845       7.491       7.214       7.028       6.821       6.541       6.266       6.073       5.905    
        5.731       5.439       4.984       4.432       3.845       3.867       4.065       4.249       4.385       4.453    
        4.460       4.429       4.349       4.213       3.998       3.588       3.136       2.803       2.303       1.791    
        1.418       1.186       1.034      0.9026      0.7641      0.5881      0.4234      0.3170      0.2130       0.000    
  28    10.00       9.885       9.768       9.635       9.494       9.336       9.173       8.998       8.802       8.569    
        8.217       7.856       7.549       7.284       7.091       6.882       6.643       6.374       6.118       5.952    
        5.797       5.588       5.285       4.874       4.504       4.339       4.351       4.434       4.466       4.482    
        4.461       4.413       4.316       4.123       3.803       3.373       2.987       2.531       2.036       1.697    
        1.425       1.234       1.083      0.9533      0.8110      0.6426      0.4796      0.3604      0.2197       0.000    
  29    10.00       9.891       9.780       9.679       9.544       9.400       9.244       9.068       8.861       8.549    
        8.204       7.888       7.598       7.378       7.157       6.932       6.714       6.498       6.252       6.037    
        5.871       5.695       5.487       5.235       4.900       4.720       4.650       4.619       4.595       4.541    
        4.473       4.376       4.249       3.984       3.600       3.210       2.807       2.346       1.969       1.723    
        1.501       1.290       1.126      0.9993      0.8606      0.6880      0.5201      0.3808      0.2220       0.000    
  30    10.00       9.900       9.808       9.720       9.602       9.470       9.331       9.136       8.879       8.562    
        8.206       7.886       7.643       7.427       7.209       6.991       6.809       6.625       6.404       6.174    
        5.976       5.814       5.634       5.453       5.237       5.040       4.957       4.828       4.743       4.618    
        4.472       4.307       4.121       3.837       3.521       3.151       2.734       2.310       2.033       1.807    
        1.556       1.349       1.191       1.039      0.8831      0.7303      0.5542      0.3968      0.2398       0.000    
  31    10.00       9.917       9.838       9.755       9.670       9.566       9.415       9.186       8.889       8.559    
        8.217       7.919       7.689       7.468       7.275       7.073       6.883       6.742       6.529       6.309    
        6.119       5.951       5.792       5.624       5.482       5.325       5.171       5.022       4.854       4.672    
        4.450       4.231       4.036       3.807       3.491       3.104       2.706       2.356       2.132       1.929    
        1.668       1.429       1.244       1.084      0.9286      0.7666      0.5901      0.4240      0.2334       0.000    
  32    10.00       9.930       9.869       9.797       9.715       9.621       9.471       9.212       8.934       8.635    
        8.274       7.965       7.736       7.529       7.334       7.164       6.997       6.820       6.647       6.438    
        6.238       6.056       5.898       5.738       5.609       5.500       5.329       5.145       4.919       4.671    
        4.435       4.220       4.011       3.789       3.487       3.138       2.803       2.497       2.257       2.028    
        1.785       1.535       1.337       1.150      0.9719      0.8252      0.6444      0.4246      0.2109       0.000    
  33    10.00       9.940       9.890       9.832       9.752       9.645       9.455       9.205       8.973       8.697    
        8.347       8.041       7.805       7.580       7.398       7.254       7.106       6.930       6.740       6.546    
        6.338       6.142       5.956       5.802       5.698       5.589       5.410       5.176       4.941       4.707    
        4.475       4.277       4.065       3.785       3.500       3.183       2.896       2.649       2.398       2.147    
        1.921       1.683       1.466       1.269       1.071      0.8966      0.6933      0.4340      0.2044       0.000    
  34    10.00       9.946       9.912       9.862       9.763       9.617       9.434       9.249       9.011       8.712    
        8.405       8.108       7.856       7.631       7.468       7.354       7.198       7.021       6.812       6.629    
        6.438       6.207       6.022       5.880       5.773       5.637       5.428       5.218       4.977       4.720    
        4.525       4.349       4.154       3.878       3.583       3.292       3.027       2.805       2.547       2.293    
        2.076       1.857       1.626       1.424       1.214       1.009      0.7498      0.4817      0.2540       0.000    
  35    10.00       9.955       9.917       9.853       9.731       9.576       9.443       9.286       9.068       8.747    
        8.421       8.146       7.892       7.698       7.560       7.433       7.270       7.074       6.873       6.669    
        6.485       6.279       6.090       5.955       5.839       5.705       5.484       5.231       4.974       4.731    
        4.584       4.416       4.206       3.994       3.741       3.431       3.162       2.980       2.718       2.433    
        2.228       2.009       1.789       1.590       1.355       1.126      0.8648      0.5772      0.2884       0.000    
  36    10.00       9.952       9.899       9.827       9.706       9.559       9.439       9.293       9.074       8.775    
        8.436       8.139       7.948       7.794       7.664       7.507       7.312       7.121       6.906       6.651    
        6.455       6.291       6.129       6.012       5.899       5.738       5.501       5.239       4.975       4.754    
        4.610       4.467       4.272       4.070       3.852       3.570       3.300       3.099       2.868       2.561    
        2.330       2.108       1.884       1.720       1.493       1.238      0.9779      0.6774      0.3445       0.000    
  37    10.00       9.938       9.879       9.801       9.678       9.544       9.409       9.268       9.068       8.746    
        8.403       8.158       8.040       7.894       7.723       7.566       7.343       7.111       6.845       6.590    
        6.440       6.310       6.157       6.035       5.903       5.710       5.489       5.215       4.981       4.815    
        4.665       4.507       4.306       4.129       3.902       3.631       3.417       3.222       2.965       2.659    
        2.383       2.166       1.987       1.803       1.588       1.351       1.102      0.7647      0.4143       0.000    
  38    10.00       9.931       9.854       9.771       9.658       9.527       9.378       9.230       9.017       8.720    
        8.457       8.260       8.109       7.977       7.786       7.544       7.292       7.011       6.725       6.561    
        6.445       6.286       6.140       6.035       5.891       5.683       5.416       5.169       5.032       4.896    
        4.730       4.550       4.356       4.175       3.952       3.702       3.510       3.310       3.005       2.684    
        2.444       2.243       2.061       1.877       1.686       1.458       1.199      0.8750      0.4540       0.000    
  39    10.00       9.912       9.835       9.752       9.641       9.494       9.334       9.178       8.984       8.743    
        8.538       8.391       8.222       8.034       7.756       7.443       7.130       6.830       6.656       6.551    
        6.394       6.224       6.118       6.020       5.884       5.644       5.379       5.215       5.091       4.949    
        4.772       4.599       4.402       4.207       4.017       3.810       3.588       3.355       3.040       2.724    
        2.471       2.270       2.128       1.982       1.773       1.540       1.280      0.9272      0.4541       0.000    
  40    10.00       9.898       9.822       9.739       9.626       9.473       9.308       9.150       8.985       8.785    
        8.616       8.489       8.280       7.978       7.624       7.274       6.957       6.752       6.638       6.511    
        6.338       6.191       6.096       5.979       5.821       5.627       5.449       5.283       5.137       5.003    
        4.839       4.646       4.445       4.260       4.084       3.874       3.634       3.401       3.058       2.712    
        2.484       2.316       2.168       2.042       1.832       1.572       1.333      0.9633      0.4756       0.000    
  41    10.00       9.905       9.816       9.724       9.600       9.461       9.316       9.175       9.016       8.838    
        8.677       8.523       8.239       7.854       7.464       7.146       6.898       6.725       6.607       6.462    
        6.287       6.162       6.057       5.932       5.793       5.652       5.521       5.362       5.187       5.032    
        4.884       4.699       4.496       4.327       4.142       3.937       3.692       3.366       2.986       2.720    
        2.534       2.360       2.223       2.065       1.842       1.585       1.374       1.022      0.5236       0.000    
  42    10.00       9.908       9.809       9.724       9.616       9.486       9.341       9.184       9.042       8.905    
        8.712       8.434       8.078       7.681       7.330       7.086       6.872       6.709       6.572       6.400    
        6.238       6.123       6.015       5.926       5.808       5.704       5.581       5.399       5.212       5.074    
        4.942       4.743       4.524       4.366       4.207       3.976       3.662       3.271       2.934       2.731    
        2.583       2.435       2.266       2.060       1.829       1.622       1.409       1.065      0.5478       0.000    
  43    10.00       9.909       9.818       9.732       9.645       9.529       9.385       9.230       9.075       8.878    
        8.601       8.281       7.917       7.535       7.264       7.059       6.858       6.688       6.523       6.352    
        6.201       6.093       6.013       5.944       5.840       5.727       5.608       5.430       5.262       5.149    
        4.982       4.762       4.557       4.400       4.218       3.936       3.566       3.190       2.955       2.795    
        2.638       2.477       2.272       2.049       1.838       1.638       1.447       1.061      0.4781       0.000    
  44    10.00       9.904       9.821       9.745       9.650       9.561       9.438       9.249       9.041       8.767    
        8.486       8.150       7.752       7.475       7.265       7.040       6.820       6.627       6.448       6.296    
        6.188       6.102       6.027       5.955       5.866       5.751       5.610       5.470       5.340       5.196    
        5.037       4.838       4.605       4.385       4.171       3.883       3.497       3.171       2.984       2.828    
        2.678       2.501       2.294       2.096       1.875       1.654       1.403      0.9088      0.4017       0.000    
  45    10.00       9.903       9.835       9.748       9.659       9.579       9.400       9.184       8.938       8.670    
        8.433       8.031       7.661       7.454       7.240       6.994       6.746       6.548       6.391       6.281    
        6.205       6.129       6.050       5.964       5.868       5.763       5.645       5.526       5.419       5.272    
        5.080       4.868       4.632       4.366       4.123       3.810       3.447       3.191       3.036       2.881    
        2.685       2.481       2.300       2.121       1.928       1.689       1.265      0.7618      0.3859       0.000    
  46    10.00       9.920       9.847       9.755       9.656       9.507       9.318       9.139       8.914       8.651    
        8.311       7.940       7.644       7.385       7.166       6.923       6.676       6.522       6.404       6.303    
        6.232       6.162       6.069       5.966       5.871       5.778       5.681       5.576       5.469       5.334    
        5.155       4.933       4.672       4.370       4.032       3.696       3.432       3.257       3.084       2.906    
        2.680       2.467       2.287       2.143       1.936       1.603       1.134      0.7176      0.3646       0.000    
  47    10.00       9.938       9.870       9.774       9.603       9.422       9.260       9.107       8.906       8.577    
        8.211       7.867       7.581       7.364       7.129       6.860       6.648       6.510       6.417       6.334    
        6.258       6.176       6.085       5.983       5.889       5.808       5.723       5.618       5.496       5.362    
        5.204       5.007       4.669       4.270       3.952       3.704       3.474       3.324       3.166       2.917    
        2.649       2.425       2.257       2.140       1.881       1.483       1.053      0.6906      0.3544       0.000    
  48    10.00       9.945       9.874       9.730       9.557       9.407       9.234       9.080       8.865       8.519    
        8.119       7.807       7.576       7.317       7.044       6.804       6.643       6.509       6.419       6.358    
        6.282       6.184       6.083       5.995       5.920       5.851       5.770       5.653       5.508       5.353    
        5.189       4.963       4.615       4.287       4.009       3.763       3.547       3.377       3.173       2.875    
        2.592       2.412       2.272       2.052       1.705       1.349       1.005      0.6955      0.3742       0.000    
  49    10.00       9.942       9.840       9.711       9.570       9.395       9.222       9.048       8.782       8.416    
        8.071       7.780       7.500       7.255       7.045       6.818       6.611       6.490       6.431       6.372    
        6.300       6.189       6.078       6.004       5.942       5.888       5.797       5.656       5.492       5.343    
        5.172       4.896       4.601       4.382       4.127       3.838       3.577       3.372       3.136       2.819    
        2.589       2.432       2.223       1.892       1.584       1.293      0.9941      0.6954      0.3729       0.000    
  50    10.00       9.935       9.828       9.697       9.569       9.406       9.212       8.995       8.715       8.425    
        8.065       7.700       7.441       7.245       7.068       6.812       6.583       6.492       6.439       6.380    
        6.308       6.194       6.080       6.009       5.956       5.906       5.803       5.642       5.476       5.334    
        5.158       4.874       4.646       4.448       4.182       3.895       3.622       3.341       3.019       2.753    
        2.635       2.456       2.134       1.802       1.572       1.291       1.008      0.6811      0.3037       0.000    

 HEAD WILL BE SAVED ON UNIT   51 AT END OF TIME STEP  50, STRESS PERIOD    2

 DRAWDOWN WILL BE SAVED ON UNIT   52 AT END OF TIME STEP  50, STRESS PERIOD    2
1
  VOLUMETRIC BUDGET FOR ENTIRE MODEL AT END OF TIME STEP 50 IN STRESS PERIOD   2
  ------------------------------------------------------------------------------

     CUMULATIVE VOLUMES      L**3       RATES FOR THIS TIME STEP      L**3/T
     ------------------                 ------------------------

           IN:                                      IN:
           ---                                      ---
             STORAGE =       24518.9531               STORAGE =         463.6495
       CONSTANT HEAD =       30882.2012         CONSTANT HEAD =         628.6221
               WELLS =           0.0000                 WELLS =           0.0000

            TOTAL IN =       55401.1562              TOTAL IN =        1092.2716

          OUT:                                     OUT:
          ----                                     ----
             STORAGE =       9.4320E-03               STORAGE =           0.0000
       CONSTANT HEAD =       30401.1367         CONSTANT HEAD =         592.2715
               WELLS =       25000.0000                 WELLS =         500.0000

           TOTAL OUT =       55401.1445             TOTAL OUT =        1092.2715

            IN - OUT =       1.1719E-02              IN - OUT =       1.2207E-04

 PERCENT DISCREPANCY =           0.00     PERCENT DISCREPANCY =           0.00






          TIME SUMMARY AT END OF TIME STEP  50 IN STRESS PERIOD    2
                    SECONDS     MINUTES      HOURS       DAYS        YEARS
                    -----------------------------------------------------------
   TIME STEP LENGTH  86400.      1440.0      24.000      1.0000     2.73785E-03
 STRESS PERIOD TIME 4.32000E+06  72000.      1200.0      50.000     0.13689    
         TOTAL TIME 4.40640E+06  73440.      1224.0      51.000     0.13963    
1
 
 SOLVING FOR HEAD 

 OUTPUT CONTROL FOR STRESS PERIOD    2   TIME STEP  51
    SAVE HEAD FOR ALL LAYERS
    SAVE DRAWDOWN FOR ALL LAYERS
    SAVE BUDGET
    PRINT HEAD FOR ALL LAYERS
    PRINT BUDGET
 UBDSV1 SAVING "         STORAGE" ON UNIT  53 AT TIME STEP 51, STRESS PERIOD   2
 UBDSV2 SAVING "   CONSTANT HEAD" ON UNIT  53 AT TIME STEP 51, STRESS PERIOD   2
 UBDSV1 SAVING "FLOW RIGHT FACE " ON UNIT  53 AT TIME STEP 51, STRESS PERIOD   2
 UBDSV1 SAVING "FLOW FRONT FACE " ON UNIT  53 AT TIME STEP 51, STRESS PERIOD   2
1
              HEAD IN LAYER   1 AT END OF TIME STEP  51 IN STRESS PERIOD    2
  ---------------------------------------------------------------------------

            1           2           3           4           5           6           7           8           9          10
           11          12          13          14          15          16          17          18          19          20
           21          22          23          24          25          26          27          28          29          30
           31          32          33          34          35          36          37          38          39          40
           41          42          43          44          45          46          47          48          49          50
 ........................................................................................................................
   1    10.00       9.957       9.896       9.827       9.760       9.683       9.610       9.539       9.448       9.360    
        9.291       9.224       9.155       9.088       8.979       8.848       8.703       8.588       8.528       8.459    
        8.377       8.311       8.247       8.172       8.073       7.878       7.657       7.503       7.352       7.210    
        7.026       6.730       6.351       5.930       5.493       5.029       4.569       4.186       3.685       3.141    
        2.694       2.267       1.793       1.396       1.152      0.9443      0.7802      0.6614      0.4440       0.000    
   2    10.00       9.956       9.901       9.831       9.763       9.695       9.623       9.529       9.430       9.357    
        9.298       9.240       9.182       9.099       8.975       8.838       8.701       8.587       8.526       8.449    
        8.366       8.317       8.265       8.187       8.061       7.870       7.670       7.511       7.359       7.221    
        7.014       6.705       6.307       5.828       5.362       4.912       4.514       4.143       3.634       3.108    
        2.660       2.179       1.747       1.436       1.206       1.028      0.8247      0.6438      0.3592       0.000    
   3    10.00       9.950       9.895       9.833       9.773       9.704       9.612       9.512       9.442       9.377    
        9.311       9.258       9.207       9.127       9.000       8.831       8.681       8.589       8.518       8.439    
        8.372       8.321       8.267       8.163       8.026       7.855       7.682       7.557       7.379       7.199    
        6.940       6.572       6.118       5.653       5.240       4.821       4.431       4.033       3.505       3.017    
        2.633       2.191       1.796       1.511       1.283       1.099      0.8579      0.5753      0.2609       0.000    
   4    10.00       9.950       9.896       9.836       9.768       9.688       9.593       9.517       9.456       9.389    
        9.331       9.287       9.230       9.139       9.015       8.836       8.680       8.594       8.514       8.443    
        8.371       8.307       8.238       8.129       7.994       7.841       7.683       7.529       7.372       7.167    
        6.841       6.355       5.872       5.519       5.176       4.744       4.275       3.809       3.386       3.019    
        2.660       2.250       1.879       1.622       1.366       1.131      0.8335      0.5175      0.2479       0.000    
   5    10.00       9.947       9.892       9.824       9.756       9.681       9.596       9.530       9.467       9.405    
        9.354       9.311       9.236       9.130       8.993       8.830       8.697       8.603       8.524       8.429    
        8.342       8.273       8.189       8.083       7.961       7.805       7.648       7.506       7.348       7.098    
        6.629       6.083       5.697       5.421       5.082       4.615       4.131       3.708       3.393       3.061    
        2.709       2.333       1.965       1.726       1.452       1.114      0.7587      0.4615      0.2321       0.000    
   6    10.00       9.939       9.875       9.818       9.755       9.675       9.602       9.546       9.480       9.421    
        9.373       9.321       9.226       9.107       8.987       8.850       8.717       8.607       8.502       8.392    
        8.305       8.224       8.151       8.055       7.900       7.746       7.619       7.474       7.254       6.875    
        6.357       5.862       5.541       5.303       4.996       4.535       4.054       3.699       3.433       3.133    
        2.812       2.481       2.106       1.787       1.423       1.051      0.6701      0.3982      0.2192       0.000    
   7    10.00       9.928       9.865       9.812       9.747       9.680       9.615       9.562       9.501       9.443    
        9.384       9.305       9.202       9.089       8.975       8.868       8.728       8.579       8.458       8.350    
        8.258       8.179       8.116       7.995       7.837       7.707       7.578       7.383       7.028       6.542    
        6.048       5.648       5.430       5.219       4.863       4.430       4.108       3.764       3.475       3.280    
        2.976       2.623       2.182       1.726       1.319      0.9123      0.5773      0.4011      0.2065       0.000    
   8    10.00       9.927       9.870       9.810       9.745       9.685       9.629       9.575       9.519       9.463    
        9.385       9.285       9.183       9.076       8.971       8.849       8.674       8.517       8.418       8.315    
        8.212       8.144       8.051       7.920       7.782       7.646       7.429       7.125       6.677       6.250    
        5.881       5.573       5.374       5.132       4.752       4.395       4.104       3.852       3.628       3.404    
        3.110       2.665       2.124       1.638       1.214      0.8541      0.6112      0.3929      0.1884       0.000    
   9    10.00       9.939       9.870       9.804       9.756       9.706       9.649       9.592       9.530       9.470    
        9.380       9.266       9.155       9.048       8.935       8.792       8.622       8.478       8.370       8.264    
        8.173       8.085       7.958       7.834       7.705       7.537       7.224       6.816       6.396       6.085    
        5.782       5.528       5.309       5.007       4.655       4.357       4.136       3.951       3.751       3.507    
        3.153       2.669       2.118       1.635       1.223      0.8730      0.6167      0.3964      0.2027       0.000    
  10    10.00       9.936       9.864       9.810       9.765       9.717       9.666       9.617       9.545       9.456    
        9.347       9.227       9.121       9.020       8.905       8.728       8.549       8.424       8.325       8.225    
        8.139       8.018       7.877       7.737       7.587       7.343       6.942       6.519       6.161       5.911    
        5.716       5.501       5.237       4.930       4.603       4.353       4.186       4.025       3.810       3.530    
        3.126       2.624       2.121       1.709       1.323      0.9607      0.6360      0.4211      0.2263       0.000    
  11    10.00       9.923       9.864       9.820       9.775       9.734       9.687       9.618       9.520       9.421    
        9.312       9.194       9.096       8.975       8.817       8.648       8.501       8.390       8.299       8.197    
        8.069       7.914       7.724       7.564       7.313       6.972       6.630       6.318       6.018       5.832    
        5.682       5.409       5.120       4.867       4.616       4.424       4.251       4.046       3.782       3.443    
        3.064       2.677       2.195       1.789       1.422       1.063      0.7147      0.4136      0.1735       0.000    
  12    10.00       9.925       9.871       9.824       9.786       9.744       9.690       9.593       9.480       9.385    
        9.283       9.160       9.040       8.897       8.758       8.603       8.460       8.364       8.263       8.123    
        7.911       7.680       7.455       7.231       6.896       6.638       6.444       6.139       5.891       5.750    
        5.579       5.326       5.088       4.853       4.673       4.491       4.272       4.023       3.703       3.364    
        3.043       2.694       2.229       1.831       1.487       1.110      0.7519      0.3901      0.1295       0.000    
  13    10.00       9.939       9.888       9.838       9.794       9.743       9.657       9.547       9.440       9.343    
        9.228       9.109       8.984       8.834       8.681       8.535       8.431       8.312       8.179       7.904    
        7.583       7.338       7.090       6.791       6.534       6.410       6.191       5.923       5.787       5.657    
        5.455       5.237       5.048       4.873       4.719       4.550       4.291       3.955       3.648       3.330    
        3.024       2.664       2.166       1.797       1.500       1.101      0.6911      0.3368      0.1031       0.000    
  14    10.00       9.953       9.909       9.857       9.795       9.711       9.600       9.490       9.393       9.286    
        9.169       9.057       8.915       8.759       8.623       8.496       8.339       8.184       7.922       7.513    
        7.204       6.967       6.637       6.402       6.282       6.169       5.953       5.786       5.656       5.522    
        5.346       5.188       5.054       4.903       4.737       4.570       4.278       3.915       3.599       3.272    
        2.960       2.512       2.039       1.749       1.413       1.054      0.6917      0.3118      8.8793E-02   0.000    
  15    10.00       9.963       9.917       9.859       9.784       9.664       9.529       9.431       9.341       9.235    
        9.143       9.028       8.847       8.668       8.543       8.347       8.148       7.984       7.583       7.136    
        6.857       6.541       6.261       6.172       6.108       5.966       5.783       5.628       5.526       5.422    
        5.288       5.172       5.062       4.929       4.766       4.564       4.225       3.825       3.493       3.196    
        2.863       2.413       2.041       1.679       1.280      0.9638      0.6179      0.2857      9.6673E-02   0.000    
  16    10.00       9.969       9.920       9.848       9.740       9.596       9.476       9.398       9.318       9.212    
        9.101       8.932       8.707       8.534       8.355       8.128       7.994       7.665       7.101       6.709    
        6.462       6.190       6.090       6.037       5.920       5.738       5.595       5.517       5.466       5.376    
        5.263       5.159       5.066       4.932       4.737       4.465       4.082       3.738       3.478       3.166    
        2.780       2.338       1.939       1.546       1.203      0.8534      0.5542      0.2885      0.1030       0.000    
  17    10.00       9.965       9.906       9.810       9.688       9.539       9.432       9.365       9.270       9.158    
        8.960       8.724       8.535       8.358       8.127       7.901       7.621       7.095       6.624       6.378    
        6.184       6.038       5.968       5.847       5.666       5.537       5.494       5.469       5.418       5.327    
        5.228       5.137       5.039       4.907       4.629       4.276       3.981       3.758       3.507       3.132    
        2.645       2.214       1.844       1.476       1.079      0.7118      0.4723      0.2619      0.1091       0.000    
  18    10.00       9.950       9.874       9.764       9.603       9.478       9.403       9.302       9.187       9.019    
        8.769       8.571       8.393       8.126       7.824       7.511       7.119       6.660       6.371       6.182    
        6.034       5.908       5.794       5.631       5.506       5.466       5.447       5.422       5.359       5.272    
        5.189       5.097       4.974       4.769       4.486       4.202       3.972       3.791       3.477       3.017    
        2.549       2.099       1.727       1.382       1.001      0.6564      0.3992      0.2188      0.1021       0.000    
  19    10.00       9.933       9.846       9.685       9.525       9.452       9.357       9.227       9.088       8.896    
        8.674       8.478       8.195       7.812       7.497       7.189       6.767       6.393       6.209       6.086    
        5.930       5.770       5.642       5.505       5.437       5.417       5.394       5.348       5.276       5.202    
        5.122       5.022       4.861       4.654       4.424       4.185       3.989       3.758       3.313       2.861    
        2.491       2.033       1.630       1.294      0.9195      0.5915      0.3592      0.2077      0.1040       0.000    
  20    10.00       9.914       9.780       9.613       9.496       9.412       9.307       9.168       9.002       8.824    
        8.592       8.301       7.915       7.564       7.284       6.915       6.531       6.339       6.184       6.016    
        5.848       5.681       5.523       5.422       5.376       5.338       5.287       5.240       5.171       5.106    
        5.030       4.931       4.772       4.591       4.386       4.184       3.977       3.619       3.153       2.770    
        2.361       1.916       1.559       1.223      0.8743      0.5315      0.3120      0.2095      0.1058       0.000    
  21    10.00       9.864       9.727       9.590       9.467       9.373       9.258       9.081       8.912       8.739    
        8.438       8.070       7.707       7.418       7.117       6.763       6.489       6.321       6.143       5.960    
        5.754       5.565       5.426       5.323       5.246       5.178       5.137       5.095       5.025       4.975    
        4.922       4.821       4.686       4.532       4.351       4.158       3.867       3.505       3.103       2.648    
        2.237       1.819       1.511       1.202      0.7598      0.4488      0.3196      0.2332      0.1121       0.000    
  22    10.00       9.844       9.682       9.549       9.445       9.332       9.164       8.986       8.836       8.607    
        8.289       7.904       7.591       7.350       7.020       6.694       6.462       6.289       6.113       5.892    
        5.655       5.463       5.283       5.124       5.021       4.973       4.941       4.887       4.863       4.834    
        4.794       4.715       4.616       4.474       4.307       4.121       3.818       3.457       2.984       2.536    
        2.181       1.802       1.459       1.002      0.6253      0.4497      0.3381      0.2248      8.9265E-02   0.000    
  23    10.00       9.809       9.651       9.541       9.427       9.259       9.068       8.929       8.739       8.500    
        8.175       7.833       7.591       7.287       6.931       6.647       6.451       6.293       6.093       5.829    
        5.576       5.350       5.112       4.830       4.579       4.531       4.605       4.641       4.688       4.702    
        4.683       4.631       4.544       4.430       4.271       4.077       3.795       3.346       2.848       2.479    
        2.138       1.707       1.215      0.8182      0.6096      0.4613      0.3374      0.2140      9.9635E-02   0.000    
  24    10.00       9.783       9.668       9.541       9.379       9.195       9.044       8.893       8.706       8.431    
        8.131       7.866       7.599       7.233       6.858       6.632       6.470       6.306       6.066       5.799    
        5.548       5.288       4.925       4.275       3.297       3.628       4.078       4.361       4.511       4.570    
        4.584       4.550       4.489       4.373       4.219       4.022       3.673       3.199       2.776       2.384    
        1.970       1.513       1.077      0.7803      0.6063      0.4584      0.3294      0.2496      0.1374       0.000    
  25    10.00       9.810       9.690       9.536       9.366       9.201       9.047       8.903       8.674       8.400    
        8.149       7.893       7.568       7.166       6.875       6.669       6.489       6.296       6.072       5.824    
        5.554       5.295       4.633       3.249      0.1060       2.660       3.626       4.110       4.365       4.478    
        4.508       4.491       4.429       4.294       4.131       3.891       3.529       3.073       2.690       2.267    
        1.788       1.358       1.002      0.7717      0.6304      0.4927      0.3600      0.2653      0.1731       0.000    
  26    10.00       9.838       9.724       9.558       9.384       9.238       9.079       8.897       8.663       8.450    
        8.234       7.894       7.484       7.142       6.930       6.745       6.531       6.280       6.043       5.831    
        5.622       5.338       4.729       3.726       2.670       3.190       3.750       4.102       4.318       4.438    
        4.463       4.443       4.363       4.230       4.073       3.813       3.338       2.917       2.594       2.076    
        1.556       1.200      0.9913      0.8367      0.6866      0.5341      0.3960      0.2900      0.1732       0.000    
  27    10.00       9.873       9.735       9.594       9.438       9.270       9.112       8.936       8.727       8.524    
        8.235       7.835       7.480       7.202       7.015       6.808       6.527       6.251       6.058       5.890    
        5.716       5.423       4.967       4.415       3.828       3.849       4.047       4.231       4.368       4.436    
        4.443       4.414       4.334       4.199       3.986       3.578       3.128       2.797       2.299       1.789    
        1.416       1.184       1.032      0.9017      0.7634      0.5876      0.4231      0.3167      0.2128       0.000    
  28    10.00       9.885       9.767       9.633       9.491       9.333       9.169       8.993       8.796       8.562    
        8.209       7.846       7.538       7.272       7.078       6.869       6.629       6.359       6.103       5.936    
        5.781       5.572       5.269       4.857       4.487       4.321       4.333       4.416       4.449       4.465    
        4.445       4.398       4.302       4.110       3.792       3.364       2.981       2.526       2.033       1.695    
        1.423       1.233       1.082      0.9523      0.8102      0.6420      0.4792      0.3601      0.2195       0.000    
  29    10.00       9.890       9.779       9.678       9.542       9.397       9.240       9.063       8.856       8.542    
        8.195       7.879       7.587       7.367       7.145       6.919       6.700       6.485       6.238       6.022    
        5.856       5.679       5.471       5.219       4.883       4.702       4.633       4.601       4.579       4.525    
        4.457       4.361       4.236       3.973       3.591       3.203       2.802       2.343       1.967       1.721    
        1.500       1.289       1.125      0.9983      0.8598      0.6874      0.5197      0.3805      0.2218       0.000    
  30    10.00       9.900       9.807       9.719       9.601       9.468       9.328       9.132       8.874       8.555    
        8.198       7.877       7.633       7.416       7.197       6.979       6.796       6.611       6.389       6.159    
        5.961       5.799       5.619       5.437       5.221       5.023       4.940       4.812       4.727       4.603    
        4.458       4.294       4.110       3.828       3.514       3.145       2.730       2.307       2.031       1.805    
        1.554       1.348       1.190       1.038      0.8823      0.7297      0.5538      0.3965      0.2396       0.000    
  31    10.00       9.917       9.837       9.754       9.669       9.564       9.412       9.182       8.884       8.553    
        8.210       7.910       7.679       7.458       7.263       7.061       6.870       6.729       6.516       6.295    
        6.105       5.936       5.777       5.609       5.466       5.310       5.155       5.006       4.840       4.658    
        4.439       4.221       4.027       3.799       3.485       3.099       2.702       2.353       2.130       1.927    
        1.666       1.428       1.243       1.083      0.9278      0.7660      0.5896      0.4237      0.2332       0.000    
  32    10.00       9.930       9.869       9.797       9.713       9.619       9.469       9.209       8.929       8.629    
        8.267       7.957       7.727       7.519       7.323       7.153       6.985       6.808       6.634       6.425    
        6.224       6.041       5.884       5.724       5.595       5.485       5.314       5.131       4.906       4.660    
        4.426       4.211       4.003       3.782       3.482       3.133       2.800       2.494       2.255       2.026    
        1.783       1.534       1.336       1.149      0.9712      0.8247      0.6439      0.4244      0.2108       0.000    
  33    10.00       9.940       9.890       9.832       9.751       9.644       9.453       9.202       8.969       8.691    
        8.340       8.034       7.797       7.570       7.388       7.243       7.095       6.919       6.728       6.534    
        6.325       6.129       5.943       5.789       5.685       5.575       5.397       5.164       4.930       4.697    
        4.467       4.269       4.058       3.779       3.494       3.178       2.893       2.646       2.396       2.146    
        1.919       1.682       1.465       1.268       1.070      0.8961      0.6929      0.4337      0.2043       0.000    
  34    10.00       9.946       9.912       9.862       9.762       9.615       9.432       9.246       9.007       8.707    
        8.399       8.101       7.848       7.622       7.459       7.344       7.187       7.010       6.801       6.617    
        6.426       6.195       6.009       5.867       5.760       5.625       5.416       5.208       4.967       4.712    
        4.518       4.342       4.148       3.873       3.578       3.288       3.024       2.802       2.545       2.292    
        2.074       1.856       1.625       1.424       1.213       1.008      0.7495      0.4815      0.2539       0.000    
  35    10.00       9.955       9.917       9.853       9.730       9.575       9.441       9.284       9.065       8.743    
        8.415       8.140       7.885       7.690       7.552       7.424       7.260       7.064       6.863       6.658    
        6.474       6.268       6.079       5.944       5.828       5.694       5.474       5.222       4.966       4.724    
        4.578       4.410       4.202       3.990       3.737       3.428       3.160       2.978       2.716       2.432    
        2.227       2.008       1.788       1.590       1.354       1.126      0.8645      0.5771      0.2884       0.000    
  36    10.00       9.952       9.898       9.827       9.705       9.558       9.437       9.291       9.072       8.771    
        8.431       8.133       7.941       7.787       7.656       7.499       7.303       7.111       6.896       6.641    
        6.446       6.282       6.120       6.002       5.889       5.729       5.493       5.231       4.969       4.749    
        4.605       4.463       4.268       4.067       3.849       3.567       3.298       3.097       2.867       2.560    
        2.329       2.108       1.883       1.719       1.492       1.238      0.9777      0.6773      0.3445       0.000    
  37    10.00       9.938       9.878       9.800       9.677       9.543       9.408       9.266       9.065       8.743    
        8.398       8.153       8.034       7.887       7.716       7.558       7.335       7.103       6.837       6.582    
        6.432       6.302       6.148       6.027       5.895       5.702       5.482       5.209       4.977       4.810    
        4.661       4.503       4.303       4.126       3.899       3.629       3.415       3.220       2.964       2.658    
        2.382       2.165       1.986       1.803       1.587       1.351       1.101      0.7646      0.4142       0.000    
  38    10.00       9.931       9.854       9.771       9.657       9.526       9.376       9.228       9.015       8.716    
        8.453       8.255       8.104       7.971       7.780       7.538       7.285       7.005       6.719       6.555    
        6.438       6.279       6.133       6.028       5.885       5.677       5.411       5.166       5.028       4.892    
        4.726       4.547       4.353       4.172       3.949       3.700       3.508       3.309       3.004       2.684    
        2.443       2.243       2.060       1.877       1.685       1.457       1.199      0.8748      0.4539       0.000    
  39    10.00       9.912       9.835       9.752       9.640       9.493       9.332       9.176       8.981       8.741    
        8.534       8.387       8.218       8.029       7.751       7.437       7.124       6.824       6.651       6.546    
        6.388       6.219       6.113       6.015       5.880       5.640       5.375       5.211       5.088       4.946    
        4.769       4.597       4.400       4.205       4.015       3.808       3.586       3.354       3.039       2.723    
        2.471       2.269       2.127       1.981       1.773       1.540       1.279      0.9270      0.4540       0.000    
  40    10.00       9.897       9.822       9.739       9.626       9.472       9.307       9.149       8.983       8.783    
        8.613       8.486       8.276       7.974       7.620       7.270       6.953       6.748       6.634       6.507    
        6.333       6.187       6.092       5.975       5.818       5.624       5.446       5.280       5.134       5.000    
        4.837       4.643       4.443       4.259       4.083       3.872       3.633       3.399       3.057       2.711    
        2.483       2.316       2.168       2.042       1.831       1.572       1.333      0.9632      0.4756       0.000    
  41    10.00       9.905       9.816       9.724       9.599       9.460       9.315       9.173       9.014       8.836    
        8.674       8.520       8.236       7.851       7.460       7.143       6.895       6.721       6.604       6.459    
        6.283       6.159       6.053       5.929       5.790       5.650       5.518       5.359       5.184       5.030    
        4.882       4.697       4.494       4.325       4.141       3.935       3.690       3.365       2.985       2.719    
        2.534       2.359       2.223       2.065       1.842       1.585       1.374       1.022      0.5235       0.000    
  42    10.00       9.908       9.809       9.724       9.615       9.485       9.340       9.183       9.041       8.903    
        8.710       8.432       8.076       7.679       7.328       7.084       6.869       6.706       6.569       6.397    
        6.236       6.120       6.013       5.923       5.805       5.702       5.579       5.397       5.210       5.072    
        4.940       4.741       4.522       4.364       4.206       3.975       3.660       3.271       2.933       2.731    
        2.583       2.434       2.265       2.060       1.829       1.622       1.408       1.065      0.5477       0.000    
  43    10.00       9.909       9.818       9.731       9.645       9.529       9.384       9.228       9.074       8.877    
        8.599       8.279       7.915       7.533       7.261       7.057       6.855       6.685       6.520       6.349    
        6.199       6.091       6.011       5.942       5.838       5.725       5.606       5.428       5.261       5.147    
        4.980       4.761       4.555       4.399       4.217       3.935       3.565       3.189       2.955       2.794    
        2.637       2.477       2.271       2.049       1.838       1.638       1.446       1.061      0.4781       0.000    
  44    10.00       9.903       9.820       9.745       9.650       9.561       9.438       9.248       9.040       8.766    
        8.485       8.149       7.751       7.473       7.264       7.038       6.818       6.625       6.446       6.294    
        6.186       6.100       6.025       5.953       5.864       5.749       5.608       5.468       5.338       5.195    
        5.035       4.836       4.604       4.383       4.170       3.882       3.496       3.171       2.983       2.828    
        2.677       2.500       2.294       2.096       1.875       1.653       1.403      0.9087      0.4016       0.000    
  45    10.00       9.903       9.835       9.748       9.658       9.579       9.400       9.184       8.938       8.669    
        8.432       8.029       7.659       7.452       7.238       6.992       6.744       6.546       6.389       6.280    
        6.203       6.127       6.048       5.962       5.866       5.761       5.643       5.524       5.418       5.271    
        5.079       4.866       4.631       4.364       4.122       3.809       3.447       3.190       3.036       2.880    
        2.685       2.480       2.299       2.120       1.928       1.689       1.265      0.7617      0.3858       0.000    
  46    10.00       9.920       9.847       9.755       9.656       9.506       9.317       9.138       8.913       8.650    
        8.310       7.939       7.642       7.384       7.165       6.922       6.674       6.520       6.402       6.301    
        6.230       6.160       6.067       5.964       5.869       5.776       5.680       5.574       5.467       5.332    
        5.154       4.932       4.671       4.369       4.031       3.695       3.431       3.256       3.084       2.905    
        2.680       2.467       2.287       2.143       1.936       1.603       1.134      0.7175      0.3646       0.000    
  47    10.00       9.938       9.870       9.774       9.603       9.422       9.260       9.107       8.905       8.577    
        8.210       7.866       7.580       7.363       7.128       6.859       6.646       6.509       6.415       6.332    
        6.256       6.175       6.083       5.981       5.887       5.807       5.722       5.616       5.494       5.360    
        5.202       5.005       4.668       4.269       3.951       3.704       3.474       3.324       3.166       2.917    
        2.649       2.425       2.257       2.140       1.880       1.483       1.053      0.6905      0.3544       0.000    
  48    10.00       9.945       9.874       9.730       9.557       9.407       9.234       9.079       8.864       8.518    
        8.118       7.806       7.575       7.316       7.043       6.802       6.641       6.508       6.418       6.357    
        6.280       6.182       6.081       5.993       5.918       5.849       5.768       5.652       5.507       5.351    
        5.188       4.962       4.614       4.286       4.008       3.762       3.547       3.377       3.173       2.875    
        2.591       2.412       2.271       2.052       1.705       1.349       1.005      0.6954      0.3741       0.000    
  49    10.00       9.942       9.840       9.711       9.570       9.395       9.221       9.048       8.781       8.415    
        8.070       7.779       7.499       7.254       7.044       6.817       6.610       6.489       6.429       6.370    
        6.299       6.188       6.076       6.003       5.941       5.887       5.795       5.655       5.491       5.342    
        5.171       4.895       4.600       4.381       4.126       3.837       3.577       3.371       3.136       2.818    
        2.589       2.432       2.223       1.892       1.584       1.293      0.9940      0.6954      0.3729       0.000    
  50    10.00       9.935       9.828       9.696       9.569       9.405       9.211       8.994       8.714       8.424    
        8.064       7.699       7.440       7.244       7.066       6.811       6.581       6.491       6.438       6.378    
        6.307       6.192       6.078       6.007       5.955       5.904       5.801       5.640       5.474       5.332    
        5.156       4.873       4.644       4.447       4.181       3.894       3.622       3.341       3.019       2.753    
        2.635       2.456       2.133       1.801       1.572       1.291       1.008      0.6811      0.3037       0.000    

 HEAD WILL BE SAVED ON UNIT   51 AT END OF TIME STEP  51, STRESS PERIOD    2

 DRAWDOWN WILL BE SAVED ON UNIT   52 AT END OF TIME STEP  51, STRESS PERIOD    2
1
  VOLUMETRIC BUDGET FOR ENTIRE MODEL AT END OF TIME STEP 51 IN STRESS PERIOD   2
  ------------------------------------------------------------------------------

     CUMULATIVE VOLUMES      L**3       RATES FOR THIS TIME STEP      L**3/T
     ------------------                 ------------------------

           IN:                                      IN:
           ---                                      ---
             STORAGE =       24980.7812               STORAGE =         461.8290
       CONSTANT HEAD =       31512.2969         CONSTANT HEAD =         630.0962
               WELLS =           0.0000                 WELLS =           0.0000

            TOTAL IN =       56493.0781              TOTAL IN =        1091.9252

          OUT:                                     OUT:
          ----                                     ----
             STORAGE =       9.4320E-03               STORAGE =           0.0000
       CONSTANT HEAD =       30993.0625         CONSTANT HEAD =         591.9249
               WELLS =       25500.0000                 WELLS =         500.0000

           TOTAL OUT =       56493.0703             TOTAL OUT =        1091.9248

            IN - OUT =       7.8125E-03              IN - OUT =       3.6621E-04

 PERCENT DISCREPANCY =           0.00     PERCENT DISCREPANCY =           0.00






          TIME SUMMARY AT END OF TIME STEP  51 IN STRESS PERIOD    2
                    SECONDS     MINUTES      HOURS       DAYS        YEARS
                    -----------------------------------------------------------
   TIME STEP LENGTH  86400.      1440.0      24.000      1.0000     2.73785E-03
 STRESS PERIOD TIME 4.40640E+06  73440.      1224.0      51.000     0.13963    
         TOTAL TIME 4.49280E+06  74880.      1248.0      52.000     0.14237    
1
 
 SOLVING FOR HEAD 

 OUTPUT CONTROL FOR STRESS PERIOD    2   TIME STEP  52
    SAVE HEAD FOR ALL LAYERS
    SAVE DRAWDOWN FOR ALL LAYERS
    SAVE BUDGET
    PRINT HEAD FOR ALL LAYERS
    PRINT BUDGET
 UBDSV1 SAVING "         STORAGE" ON UNIT  53 AT TIME STEP 52, STRESS PERIOD   2
 UBDSV2 SAVING "   CONSTANT HEAD" ON UNIT  53 AT TIME STEP 52, STRESS PERIOD   2
 UBDSV1 SAVING "FLOW RIGHT FACE " ON UNIT  53 AT TIME STEP 52, STRESS PERIOD   2
 UBDSV1 SAVING "FLOW FRONT FACE " ON UNIT  53 AT TIME STEP 52, STRESS PERIOD   2
1
              HEAD IN LAYER   1 AT END OF TIME STEP  52 IN STRESS PERIOD    2
  ---------------------------------------------------------------------------

            1           2           3           4           5           6           7           8           9          10
           11          12          13          14          15          16          17          18          19          20
           21          22          23          24          25          26          27          28          29          30
           31          32          33          34          35          36          37          38          39          40
           41          42          43          44          45          46          47          48          49          50
 ........................................................................................................................
   1    10.00       9.957       9.896       9.827       9.759       9.682       9.609       9.538       9.447       9.358    
        9.289       9.222       9.153       9.086       8.977       8.846       8.700       8.584       8.525       8.456    
        8.374       8.308       8.243       8.169       8.070       7.874       7.654       7.499       7.349       7.207    
        7.022       6.726       6.348       5.927       5.491       5.026       4.567       4.184       3.684       3.139    
        2.693       2.266       1.792       1.395       1.151      0.9438      0.7798      0.6611      0.4437       0.000    
   2    10.00       9.956       9.901       9.831       9.762       9.694       9.622       9.528       9.428       9.355    
        9.296       9.238       9.180       9.097       8.972       8.835       8.698       8.584       8.523       8.446    
        8.363       8.314       8.261       8.184       8.058       7.867       7.666       7.507       7.355       7.217    
        7.011       6.701       6.304       5.825       5.359       4.910       4.511       4.141       3.632       3.106    
        2.658       2.178       1.746       1.435       1.205       1.027      0.8242      0.6434      0.3590       0.000    
   3    10.00       9.950       9.895       9.833       9.773       9.704       9.611       9.511       9.441       9.375    
        9.309       9.256       9.205       9.125       8.997       8.828       8.678       8.586       8.514       8.436    
        8.369       8.317       8.263       8.159       8.022       7.852       7.678       7.553       7.376       7.195    
        6.936       6.568       6.114       5.650       5.237       4.818       4.429       4.031       3.503       3.015    
        2.631       2.190       1.795       1.510       1.282       1.098      0.8574      0.5750      0.2607       0.000    
   4    10.00       9.950       9.896       9.836       9.767       9.687       9.592       9.516       9.455       9.388    
        9.329       9.285       9.228       9.137       9.013       8.833       8.677       8.590       8.510       8.440    
        8.367       8.303       8.235       8.125       7.990       7.837       7.679       7.525       7.368       7.163    
        6.838       6.351       5.868       5.515       5.173       4.741       4.272       3.806       3.384       3.017    
        2.658       2.249       1.878       1.621       1.365       1.131      0.8330      0.5172      0.2478       0.000    
   5    10.00       9.947       9.892       9.824       9.755       9.681       9.595       9.529       9.466       9.403    
        9.352       9.309       9.234       9.128       8.991       8.827       8.694       8.600       8.520       8.426    
        8.338       8.269       8.185       8.079       7.957       7.801       7.643       7.501       7.343       7.093    
        6.625       6.079       5.692       5.417       5.078       4.611       4.128       3.705       3.390       3.058    
        2.707       2.331       1.964       1.725       1.451       1.113      0.7582      0.4612      0.2320       0.000    
   6    10.00       9.939       9.875       9.818       9.755       9.674       9.601       9.545       9.479       9.419    
        9.371       9.319       9.225       9.104       8.985       8.847       8.714       8.604       8.499       8.389    
        8.301       8.220       8.147       8.050       7.895       7.741       7.615       7.470       7.250       6.870    
        6.353       5.857       5.536       5.298       4.991       4.530       4.050       3.695       3.430       3.130    
        2.810       2.479       2.104       1.785       1.422       1.050      0.6697      0.3980      0.2191       0.000    
   7    10.00       9.928       9.864       9.812       9.746       9.679       9.614       9.561       9.500       9.441    
        9.382       9.303       9.200       9.087       8.973       8.865       8.725       8.575       8.454       8.346    
        8.254       8.175       8.112       7.991       7.832       7.702       7.573       7.378       7.023       6.537    
        6.043       5.642       5.425       5.213       4.858       4.426       4.103       3.761       3.471       3.277    
        2.974       2.621       2.180       1.725       1.318      0.9117      0.5769      0.4009      0.2064       0.000    
   8    10.00       9.927       9.870       9.810       9.744       9.685       9.628       9.574       9.518       9.462    
        9.384       9.283       9.181       9.073       8.968       8.847       8.671       8.514       8.414       8.311    
        8.208       8.140       8.046       7.915       7.777       7.641       7.424       7.120       6.670       6.244    
        5.875       5.567       5.368       5.126       4.746       4.390       4.100       3.847       3.624       3.401    
        3.107       2.663       2.122       1.637       1.213      0.8535      0.6107      0.3927      0.1883       0.000    
   9    10.00       9.938       9.869       9.804       9.755       9.705       9.649       9.591       9.529       9.469    
        9.379       9.264       9.152       9.045       8.933       8.789       8.618       8.474       8.366       8.260    
        8.168       8.081       7.953       7.829       7.700       7.532       7.218       6.809       6.389       6.078    
        5.775       5.521       5.303       5.000       4.649       4.351       4.131       3.946       3.747       3.503    
        3.150       2.667       2.116       1.634       1.222      0.8724      0.6162      0.3962      0.2026       0.000    
  10    10.00       9.936       9.863       9.809       9.764       9.716       9.665       9.616       9.544       9.455    
        9.345       9.225       9.118       9.018       8.902       8.725       8.545       8.419       8.320       8.220    
        8.134       8.013       7.872       7.731       7.581       7.337       6.935       6.511       6.153       5.903    
        5.708       5.494       5.229       4.924       4.597       4.347       4.180       4.020       3.806       3.526    
        3.122       2.622       2.119       1.708       1.322      0.9600      0.6356      0.4207      0.2261       0.000    
  11    10.00       9.922       9.863       9.819       9.774       9.733       9.686       9.617       9.519       9.419    
        9.310       9.192       9.093       8.972       8.814       8.644       8.497       8.385       8.294       8.192    
        8.064       7.909       7.718       7.557       7.306       6.964       6.622       6.309       6.009       5.824    
        5.673       5.401       5.112       4.859       4.609       4.418       4.245       4.041       3.777       3.439    
        3.060       2.674       2.192       1.788       1.421       1.062      0.7141      0.4133      0.1733       0.000    
  12    10.00       9.925       9.870       9.823       9.786       9.743       9.689       9.592       9.478       9.383    
        9.281       9.158       9.037       8.893       8.754       8.598       8.456       8.359       8.258       8.118    
        7.905       7.673       7.448       7.223       6.887       6.629       6.434       6.130       5.881       5.741    
        5.570       5.317       5.079       4.845       4.666       4.484       4.266       4.018       3.698       3.359    
        3.039       2.691       2.227       1.830       1.485       1.109      0.7513      0.3898      0.1294       0.000    
  13    10.00       9.939       9.888       9.838       9.793       9.742       9.656       9.545       9.438       9.341    
        9.226       9.106       8.981       8.831       8.677       8.530       8.426       8.306       8.173       7.897    
        7.575       7.330       7.081       6.781       6.524       6.399       6.180       5.912       5.776       5.647    
        5.445       5.227       5.039       4.865       4.711       4.542       4.284       3.950       3.643       3.325    
        3.020       2.661       2.163       1.795       1.499       1.100      0.6905      0.3365      0.1030       0.000    
  14    10.00       9.953       9.909       9.856       9.794       9.711       9.599       9.488       9.391       9.284    
        9.166       9.053       8.912       8.754       8.618       8.491       8.334       8.178       7.915       7.504    
        7.195       6.956       6.626       6.391       6.270       6.157       5.941       5.775       5.644       5.510    
        5.335       5.178       5.044       4.893       4.728       4.562       4.271       3.909       3.593       3.267    
        2.956       2.509       2.037       1.747       1.411       1.053      0.6911      0.3115      8.8711E-02   0.000    
  15    10.00       9.962       9.916       9.858       9.784       9.662       9.527       9.429       9.339       9.232    
        9.140       9.024       8.843       8.663       8.538       8.341       8.141       7.977       7.574       7.126    
        6.846       6.529       6.249       6.160       6.095       5.954       5.770       5.615       5.513       5.410    
        5.276       5.161       5.051       4.919       4.756       4.555       4.218       3.818       3.488       3.191    
        2.858       2.409       2.038       1.677       1.279      0.9628      0.6173      0.2854      9.6576E-02   0.000    
  16    10.00       9.969       9.920       9.847       9.739       9.595       9.474       9.396       9.316       9.209    
        9.098       8.928       8.702       8.528       8.349       8.121       7.987       7.656       7.090       6.696    
        6.449       6.177       6.076       6.024       5.907       5.725       5.581       5.503       5.453       5.364    
        5.251       5.147       5.054       4.922       4.727       4.456       4.074       3.731       3.471       3.160    
        2.775       2.335       1.936       1.544       1.202      0.8524      0.5536      0.2882      0.1029       0.000    
  17    10.00       9.965       9.905       9.809       9.686       9.537       9.430       9.362       9.267       9.154    
        8.956       8.718       8.528       8.351       8.119       7.892       7.611       7.083       6.610       6.364    
        6.170       6.024       5.954       5.833       5.652       5.523       5.480       5.455       5.405       5.314    
        5.216       5.125       5.028       4.895       4.619       4.267       3.972       3.751       3.501       3.127    
        2.641       2.211       1.842       1.474       1.077      0.7109      0.4717      0.2616      0.1090       0.000    
  18    10.00       9.950       9.874       9.763       9.601       9.476       9.400       9.299       9.184       9.015    
        8.764       8.565       8.386       8.117       7.814       7.501       7.107       6.646       6.356       6.167    
        6.020       5.893       5.779       5.617       5.491       5.451       5.433       5.408       5.345       5.259    
        5.176       5.084       4.962       4.758       4.475       4.193       3.964       3.783       3.470       3.012    
        2.545       2.096       1.725       1.380      0.9998      0.6556      0.3987      0.2186      0.1020       0.000    
  19    10.00       9.933       9.845       9.684       9.523       9.450       9.355       9.224       9.084       8.891    
        8.668       8.472       8.186       7.802       7.486       7.177       6.754       6.378       6.194       6.071    
        5.915       5.755       5.627       5.490       5.423       5.402       5.379       5.334       5.261       5.188    
        5.108       5.009       4.849       4.642       4.413       4.176       3.980       3.750       3.307       2.856    
        2.487       2.029       1.628       1.292      0.9183      0.5907      0.3588      0.2074      0.1038       0.000    
  20    10.00       9.914       9.779       9.612       9.493       9.410       9.304       9.164       8.997       8.818    
        8.585       8.293       7.906       7.553       7.272       6.902       6.517       6.325       6.169       6.001    
        5.833       5.665       5.508       5.407       5.361       5.323       5.272       5.225       5.157       5.091    
        5.016       4.917       4.759       4.578       4.374       4.174       3.968       3.610       3.147       2.764    
        2.357       1.913       1.556       1.221      0.8731      0.5308      0.3116      0.2093      0.1057       0.000    
  21    10.00       9.864       9.726       9.588       9.465       9.370       9.255       9.077       8.907       8.733    
        8.430       8.061       7.697       7.406       7.104       6.750       6.475       6.306       6.128       5.945    
        5.739       5.549       5.410       5.307       5.230       5.163       5.121       5.080       5.009       4.960    
        4.907       4.806       4.673       4.519       4.339       4.147       3.858       3.497       3.096       2.643    
        2.233       1.816       1.508       1.200      0.7588      0.4482      0.3192      0.2329      0.1119       0.000    
  22    10.00       9.844       9.681       9.547       9.443       9.329       9.160       8.982       8.831       8.601    
        8.280       7.894       7.580       7.338       7.007       6.680       6.447       6.274       6.098       5.877    
        5.640       5.447       5.267       5.109       5.006       4.957       4.925       4.871       4.847       4.819    
        4.778       4.701       4.601       4.460       4.294       4.110       3.808       3.449       2.977       2.531    
        2.177       1.799       1.457       1.001      0.6245      0.4492      0.3377      0.2246      8.9165E-02   0.000    
  23    10.00       9.808       9.650       9.539       9.424       9.255       9.064       8.924       8.733       8.493    
        8.167       7.823       7.580       7.274       6.918       6.633       6.437       6.278       6.078       5.813    
        5.560       5.334       5.096       4.813       4.563       4.515       4.589       4.625       4.671       4.686    
        4.668       4.615       4.529       4.416       4.258       4.065       3.785       3.338       2.842       2.474    
        2.135       1.705       1.213      0.8172      0.6089      0.4607      0.3370      0.2138      9.9529E-02   0.000    
  24    10.00       9.782       9.667       9.539       9.377       9.191       9.040       8.888       8.700       8.423    
        8.123       7.856       7.588       7.221       6.844       6.618       6.456       6.291       6.051       5.783    
        5.532       5.272       4.909       4.259       3.280       3.611       4.061       4.344       4.494       4.554    
        4.568       4.534       4.474       4.359       4.206       4.011       3.663       3.191       2.770       2.380    
        1.966       1.511       1.076      0.7793      0.6056      0.4579      0.3291      0.2493      0.1372       0.000    
  25    10.00       9.810       9.688       9.534       9.363       9.197       9.042       8.898       8.668       8.393    
        8.140       7.883       7.557       7.154       6.862       6.656       6.475       6.281       6.057       5.809    
        5.538       5.279       4.617       3.232      8.7554E-02   2.642       3.609       4.093       4.348       4.462    
        4.492       4.475       4.414       4.280       4.118       3.880       3.519       3.066       2.685       2.262    
        1.785       1.356       1.001      0.7708      0.6297      0.4922      0.3596      0.2650      0.1730       0.000    
  26    10.00       9.837       9.722       9.556       9.381       9.235       9.075       8.892       8.657       8.443    
        8.226       7.885       7.473       7.130       6.917       6.732       6.517       6.265       6.028       5.815    
        5.607       5.322       4.712       3.709       2.653       3.172       3.733       4.085       4.301       4.421    
        4.447       4.428       4.348       4.216       4.060       3.802       3.329       2.910       2.588       2.072    
        1.554       1.199      0.9902      0.8358      0.6859      0.5336      0.3956      0.2897      0.1730       0.000    
  27    10.00       9.873       9.734       9.592       9.435       9.267       9.108       8.931       8.721       8.517    
        8.227       7.825       7.469       7.190       7.002       6.794       6.513       6.237       6.043       5.874    
        5.700       5.407       4.951       4.398       3.810       3.831       4.029       4.213       4.351       4.420    
        4.427       4.398       4.319       4.185       3.973       3.568       3.120       2.791       2.294       1.786    
        1.415       1.183       1.031      0.9008      0.7626      0.5870      0.4227      0.3164      0.2126       0.000    
  28    10.00       9.884       9.766       9.631       9.489       9.330       9.166       8.988       8.791       8.556    
        8.201       7.836       7.527       7.260       7.066       6.856       6.616       6.345       6.089       5.921    
        5.766       5.556       5.253       4.841       4.470       4.304       4.316       4.399       4.432       4.449    
        4.429       4.383       4.287       4.097       3.781       3.356       2.974       2.521       2.030       1.692    
        1.422       1.231       1.081      0.9514      0.8094      0.6414      0.4788      0.3598      0.2193       0.000    
  29    10.00       9.890       9.778       9.677       9.540       9.394       9.237       9.059       8.851       8.536    
        8.187       7.869       7.577       7.356       7.133       6.906       6.687       6.471       6.223       6.007    
        5.840       5.664       5.455       5.203       4.866       4.686       4.616       4.585       4.562       4.509    
        4.442       4.347       4.223       3.962       3.582       3.196       2.796       2.339       1.964       1.719    
        1.498       1.288       1.124      0.9974      0.8590      0.6868      0.5192      0.3801      0.2216       0.000    
  30    10.00       9.899       9.807       9.718       9.599       9.465       9.325       9.128       8.869       8.549    
        8.190       7.867       7.623       7.405       7.186       6.967       6.783       6.598       6.376       6.145    
        5.946       5.784       5.603       5.421       5.205       5.007       4.924       4.796       4.711       4.588    
        4.444       4.282       4.099       3.819       3.506       3.139       2.725       2.304       2.028       1.803    
        1.553       1.346       1.188       1.037      0.8816      0.7290      0.5533      0.3962      0.2394       0.000    
  31    10.00       9.916       9.836       9.753       9.667       9.562       9.410       9.178       8.879       8.547    
        8.202       7.901       7.670       7.447       7.252       7.050       6.858       6.717       6.503       6.281    
        6.090       5.922       5.762       5.594       5.451       5.294       5.140       4.991       4.825       4.645    
        4.427       4.210       4.018       3.791       3.478       3.094       2.698       2.350       2.127       1.925    
        1.665       1.426       1.242       1.082      0.9270      0.7654      0.5892      0.4234      0.2330       0.000    
  32    10.00       9.929       9.868       9.796       9.712       9.618       9.467       9.205       8.925       8.623    
        8.260       7.948       7.718       7.509       7.313       7.142       6.973       6.795       6.622       6.412    
        6.210       6.027       5.869       5.710       5.581       5.471       5.299       5.116       4.893       4.649    
        4.416       4.203       3.995       3.775       3.476       3.129       2.796       2.491       2.252       2.023    
        1.782       1.532       1.335       1.148      0.9704      0.8241      0.6435      0.4241      0.2106       0.000    
  33    10.00       9.939       9.889       9.831       9.750       9.643       9.451       9.199       8.965       8.686    
        8.334       8.026       7.788       7.561       7.378       7.233       7.084       6.907       6.716       6.521    
        6.312       6.115       5.929       5.775       5.671       5.561       5.384       5.152       4.919       4.688    
        4.459       4.262       4.051       3.773       3.489       3.174       2.889       2.643       2.394       2.144    
        1.918       1.681       1.464       1.267       1.069      0.8956      0.6925      0.4335      0.2042       0.000    
  34    10.00       9.945       9.912       9.861       9.761       9.614       9.430       9.244       9.004       8.702    
        8.393       8.093       7.840       7.613       7.450       7.335       7.177       6.999       6.790       6.606    
        6.414       6.183       5.997       5.855       5.748       5.612       5.404       5.197       4.958       4.704    
        4.511       4.335       4.142       3.868       3.574       3.284       3.021       2.799       2.542       2.290    
        2.073       1.855       1.624       1.423       1.213       1.008      0.7492      0.4813      0.2538       0.000    
  35    10.00       9.955       9.916       9.853       9.729       9.574       9.440       9.281       9.061       8.738    
        8.410       8.133       7.878       7.682       7.543       7.415       7.251       7.054       6.852       6.648    
        6.464       6.257       6.068       5.933       5.817       5.684       5.463       5.213       4.958       4.718    
        4.572       4.405       4.197       3.986       3.733       3.424       3.157       2.976       2.715       2.430    
        2.225       2.007       1.787       1.589       1.354       1.125      0.8643      0.5769      0.2883       0.000    
  36    10.00       9.952       9.898       9.826       9.704       9.556       9.436       9.289       9.069       8.768    
        8.426       8.127       7.935       7.779       7.648       7.490       7.294       7.102       6.887       6.632    
        6.437       6.273       6.110       5.993       5.880       5.719       5.485       5.224       4.963       4.744    
        4.601       4.458       4.264       4.063       3.846       3.565       3.295       3.095       2.865       2.558    
        2.328       2.107       1.882       1.719       1.492       1.238      0.9774      0.6771      0.3444       0.000    
  37    10.00       9.938       9.878       9.800       9.676       9.542       9.406       9.264       9.063       8.739    
        8.394       8.147       8.028       7.881       7.709       7.551       7.327       7.095       6.829       6.574    
        6.424       6.294       6.140       6.018       5.886       5.695       5.476       5.204       4.973       4.806    
        4.657       4.499       4.299       4.123       3.896       3.627       3.413       3.218       2.962       2.657    
        2.381       2.165       1.985       1.802       1.587       1.351       1.101      0.7644      0.4142       0.000    
  38    10.00       9.931       9.854       9.770       9.657       9.525       9.375       9.227       9.013       8.713    
        8.448       8.251       8.099       7.965       7.773       7.531       7.278       6.998       6.712       6.548    
        6.431       6.272       6.127       6.022       5.879       5.671       5.406       5.162       5.024       4.888    
        4.723       4.544       4.351       4.170       3.947       3.698       3.506       3.307       3.003       2.683    
        2.442       2.242       2.060       1.877       1.685       1.457       1.199      0.8747      0.4539       0.000    
  39    10.00       9.912       9.834       9.751       9.640       9.492       9.331       9.174       8.979       8.738    
        8.531       8.383       8.213       8.024       7.745       7.432       7.119       6.819       6.646       6.541    
        6.383       6.213       6.108       6.010       5.875       5.636       5.372       5.208       5.085       4.943    
        4.766       4.594       4.398       4.203       4.013       3.806       3.584       3.352       3.038       2.722    
        2.470       2.269       2.127       1.981       1.773       1.540       1.279      0.9269      0.4539       0.000    
  40    10.00       9.897       9.822       9.738       9.625       9.471       9.305       9.147       8.981       8.780    
        8.610       8.483       8.272       7.970       7.616       7.265       6.949       6.744       6.629       6.502    
        6.329       6.183       6.088       5.971       5.814       5.621       5.443       5.278       5.131       4.998    
        4.834       4.641       4.441       4.257       4.081       3.871       3.631       3.398       3.056       2.711    
        2.483       2.315       2.167       2.042       1.831       1.572       1.332      0.9630      0.4755       0.000    
  41    10.00       9.905       9.816       9.724       9.599       9.459       9.313       9.172       9.013       8.833    
        8.672       8.517       8.233       7.848       7.457       7.140       6.891       6.718       6.600       6.455    
        6.280       6.155       6.050       5.926       5.787       5.647       5.516       5.357       5.182       5.028    
        4.879       4.695       4.492       4.324       4.139       3.934       3.689       3.363       2.984       2.719    
        2.533       2.359       2.222       2.064       1.842       1.585       1.373       1.022      0.5235       0.000    
  42    10.00       9.908       9.809       9.724       9.615       9.484       9.339       9.181       9.039       8.901    
        8.707       8.430       8.073       7.676       7.325       7.081       6.867       6.703       6.566       6.394    
        6.233       6.117       6.010       5.921       5.803       5.699       5.577       5.395       5.208       5.070    
        4.938       4.739       4.520       4.362       4.204       3.974       3.659       3.270       2.933       2.730    
        2.582       2.434       2.265       2.059       1.829       1.622       1.408       1.064      0.5476       0.000    
  43    10.00       9.909       9.818       9.731       9.644       9.528       9.383       9.227       9.072       8.875    
        8.597       8.277       7.913       7.531       7.259       7.055       6.853       6.683       6.518       6.347    
        6.196       6.088       6.009       5.939       5.836       5.723       5.603       5.426       5.259       5.145    
        4.979       4.759       4.553       4.397       4.216       3.934       3.564       3.188       2.954       2.794    
        2.636       2.476       2.271       2.049       1.838       1.638       1.446       1.061      0.4780       0.000    
  44    10.00       9.903       9.820       9.745       9.649       9.560       9.437       9.247       9.038       8.765    
        8.484       8.148       7.749       7.472       7.262       7.036       6.816       6.623       6.444       6.292    
        6.184       6.098       6.023       5.951       5.862       5.747       5.606       5.466       5.337       5.193    
        5.033       4.834       4.602       4.382       4.169       3.881       3.495       3.170       2.982       2.827    
        2.677       2.500       2.293       2.095       1.875       1.653       1.403      0.9086      0.4015       0.000    
  45    10.00       9.903       9.835       9.748       9.658       9.578       9.399       9.183       8.937       8.668    
        8.431       8.028       7.658       7.451       7.237       6.990       6.742       6.544       6.387       6.278    
        6.201       6.125       6.046       5.960       5.864       5.759       5.641       5.522       5.416       5.269    
        5.077       4.865       4.630       4.363       4.121       3.808       3.446       3.190       3.035       2.880    
        2.684       2.480       2.299       2.120       1.927       1.689       1.265      0.7616      0.3858       0.000    
  46    10.00       9.920       9.847       9.755       9.656       9.506       9.317       9.137       8.912       8.649    
        8.309       7.938       7.641       7.382       7.163       6.920       6.673       6.518       6.400       6.300    
        6.229       6.158       6.065       5.962       5.867       5.774       5.678       5.572       5.466       5.331    
        5.152       4.930       4.669       4.368       4.030       3.694       3.430       3.255       3.083       2.904    
        2.679       2.467       2.287       2.143       1.936       1.603       1.134      0.7175      0.3645       0.000    
  47    10.00       9.938       9.870       9.774       9.603       9.421       9.259       9.106       8.905       8.576    
        8.209       7.865       7.579       7.361       7.127       6.857       6.644       6.507       6.414       6.331    
        6.255       6.173       6.081       5.980       5.886       5.805       5.720       5.615       5.492       5.358    
        5.201       5.004       4.667       4.268       3.951       3.703       3.473       3.323       3.165       2.916    
        2.648       2.425       2.257       2.140       1.880       1.483       1.053      0.6904      0.3544       0.000    
  48    10.00       9.945       9.874       9.729       9.556       9.406       9.233       9.079       8.864       8.517    
        8.117       7.805       7.574       7.314       7.041       6.801       6.640       6.506       6.416       6.355    
        6.279       6.181       6.080       5.991       5.916       5.848       5.766       5.650       5.505       5.349    
        5.186       4.961       4.612       4.285       4.007       3.761       3.546       3.376       3.172       2.874    
        2.591       2.411       2.271       2.051       1.705       1.349       1.005      0.6953      0.3741       0.000    
  49    10.00       9.942       9.840       9.711       9.569       9.395       9.221       9.047       8.781       8.414    
        8.069       7.778       7.498       7.252       7.042       6.815       6.608       6.487       6.428       6.368    
        6.297       6.186       6.074       6.001       5.939       5.885       5.794       5.653       5.489       5.340    
        5.169       4.894       4.599       4.380       4.125       3.836       3.576       3.370       3.135       2.818    
        2.589       2.432       2.222       1.891       1.584       1.293      0.9939      0.6953      0.3729       0.000    
  50    10.00       9.935       9.828       9.696       9.568       9.405       9.211       8.994       8.713       8.423    
        8.063       7.698       7.439       7.242       7.065       6.809       6.580       6.489       6.436       6.376    
        6.305       6.191       6.076       6.005       5.953       5.903       5.799       5.639       5.473       5.331    
        5.155       4.871       4.643       4.446       4.180       3.894       3.621       3.340       3.018       2.752    
        2.634       2.456       2.133       1.801       1.572       1.291       1.008      0.6810      0.3036       0.000    

 HEAD WILL BE SAVED ON UNIT   51 AT END OF TIME STEP  52, STRESS PERIOD    2

 DRAWDOWN WILL BE SAVED ON UNIT   52 AT END OF TIME STEP  52, STRESS PERIOD    2
1
  VOLUMETRIC BUDGET FOR ENTIRE MODEL AT END OF TIME STEP 52 IN STRESS PERIOD   2
  ------------------------------------------------------------------------------

     CUMULATIVE VOLUMES      L**3       RATES FOR THIS TIME STEP      L**3/T
     ------------------                 ------------------------

           IN:                                      IN:
           ---                                      ---
             STORAGE =       25440.7617               STORAGE =         459.9813
       CONSTANT HEAD =       32143.8809         CONSTANT HEAD =         631.5849
               WELLS =           0.0000                 WELLS =           0.0000

            TOTAL IN =       57584.6406              TOTAL IN =        1091.5662

          OUT:                                     OUT:
          ----                                     ----
             STORAGE =       9.4320E-03               STORAGE =           0.0000
       CONSTANT HEAD =       31584.6289         CONSTANT HEAD =         591.5661
               WELLS =       26000.0000                 WELLS =         500.0000

           TOTAL OUT =       57584.6367             TOTAL OUT =        1091.5662

            IN - OUT =       3.9063E-03              IN - OUT =           0.0000

 PERCENT DISCREPANCY =           0.00     PERCENT DISCREPANCY =           0.00






          TIME SUMMARY AT END OF TIME STEP  52 IN STRESS PERIOD    2
                    SECONDS     MINUTES      HOURS       DAYS        YEARS
                    -----------------------------------------------------------
   TIME STEP LENGTH  86400.      1440.0      24.000      1.0000     2.73785E-03
 STRESS PERIOD TIME 4.49280E+06  74880.      1248.0      52.000     0.14237    
         TOTAL TIME 4.57920E+06  76320.      1272.0      53.000     0.14511    
1
 
 SOLVING FOR HEAD 

 OUTPUT CONTROL FOR STRESS PERIOD    2   TIME STEP  53
    SAVE HEAD FOR ALL LAYERS
    SAVE DRAWDOWN FOR ALL LAYERS
    SAVE BUDGET
    PRINT HEAD FOR ALL LAYERS
    PRINT BUDGET
 UBDSV1 SAVING "         STORAGE" ON UNIT  53 AT TIME STEP 53, STRESS PERIOD   2
 UBDSV2 SAVING "   CONSTANT HEAD" ON UNIT  53 AT TIME STEP 53, STRESS PERIOD   2
 UBDSV1 SAVING "FLOW RIGHT FACE " ON UNIT  53 AT TIME STEP 53, STRESS PERIOD   2
 UBDSV1 SAVING "FLOW FRONT FACE " ON UNIT  53 AT TIME STEP 53, STRESS PERIOD   2
1
              HEAD IN LAYER   1 AT END OF TIME STEP  53 IN STRESS PERIOD    2
  ---------------------------------------------------------------------------

            1           2           3           4           5           6           7           8           9          10
           11          12          13          14          15          16          17          18          19          20
           21          22          23          24          25          26          27          28          29          30
           31          32          33          34          35          36          37          38          39          40
           41          42          43          44          45          46          47          48          49          50
 ........................................................................................................................
   1    10.00       9.957       9.896       9.826       9.759       9.681       9.608       9.537       9.446       9.357    
        9.288       9.220       9.151       9.083       8.974       8.843       8.697       8.581       8.522       8.453    
        8.370       8.304       8.240       8.165       8.066       7.871       7.650       7.496       7.345       7.203    
        7.019       6.723       6.344       5.924       5.488       5.024       4.564       4.181       3.682       3.138    
        2.691       2.264       1.791       1.394       1.150      0.9432      0.7793      0.6607      0.4435       0.000    
   2    10.00       9.956       9.901       9.831       9.762       9.694       9.621       9.526       9.427       9.354    
        9.294       9.236       9.178       9.095       8.970       8.833       8.695       8.581       8.520       8.442    
        8.359       8.310       8.258       8.180       8.054       7.863       7.663       7.504       7.351       7.213    
        7.007       6.698       6.301       5.821       5.356       4.907       4.509       4.139       3.630       3.104    
        2.657       2.177       1.745       1.434       1.205       1.027      0.8237      0.6430      0.3587       0.000    
   3    10.00       9.950       9.895       9.833       9.772       9.703       9.610       9.510       9.440       9.374    
        9.307       9.254       9.203       9.123       8.995       8.826       8.675       8.583       8.511       8.432    
        8.365       8.313       8.259       8.155       8.018       7.848       7.674       7.549       7.372       7.191    
        6.933       6.565       6.111       5.646       5.234       4.816       4.426       4.029       3.501       3.014    
        2.630       2.188       1.794       1.509       1.281       1.097      0.8569      0.5746      0.2606       0.000    
   4    10.00       9.950       9.896       9.835       9.767       9.686       9.591       9.514       9.454       9.386    
        9.327       9.284       9.226       9.135       9.011       8.830       8.674       8.587       8.507       8.437    
        8.364       8.299       8.231       8.122       7.986       7.833       7.675       7.521       7.364       7.159    
        6.834       6.347       5.864       5.512       5.169       4.738       4.270       3.804       3.382       3.015    
        2.656       2.247       1.876       1.620       1.364       1.130      0.8325      0.5169      0.2476       0.000    
   5    10.00       9.947       9.892       9.823       9.754       9.680       9.594       9.527       9.465       9.402    
        9.351       9.308       9.233       9.126       8.988       8.824       8.691       8.597       8.517       8.422    
        8.335       8.265       8.181       8.075       7.953       7.796       7.639       7.497       7.339       7.089    
        6.620       6.075       5.688       5.412       5.074       4.608       4.125       3.702       3.387       3.056    
        2.705       2.329       1.962       1.724       1.450       1.112      0.7578      0.4609      0.2318       0.000    
   6    10.00       9.939       9.874       9.817       9.754       9.673       9.600       9.544       9.478       9.418    
        9.370       9.317       9.223       9.102       8.982       8.844       8.711       8.601       8.495       8.385    
        8.298       8.216       8.142       8.046       7.891       7.737       7.610       7.465       7.245       6.866    
        6.348       5.852       5.531       5.293       4.987       4.526       4.047       3.692       3.426       3.127    
        2.807       2.477       2.103       1.784       1.421       1.049      0.6693      0.3977      0.2190       0.000    
   7    10.00       9.927       9.864       9.811       9.746       9.678       9.613       9.560       9.499       9.440    
        9.381       9.301       9.198       9.084       8.970       8.862       8.722       8.572       8.450       8.342    
        8.250       8.171       8.108       7.986       7.828       7.697       7.569       7.373       7.018       6.531    
        6.037       5.637       5.419       5.208       4.853       4.421       4.099       3.757       3.468       3.274    
        2.971       2.618       2.178       1.724       1.317      0.9110      0.5765      0.4006      0.2063       0.000    
   8    10.00       9.927       9.870       9.809       9.744       9.684       9.627       9.573       9.517       9.460    
        9.382       9.281       9.179       9.071       8.966       8.844       8.667       8.510       8.410       8.307    
        8.203       8.135       8.041       7.911       7.772       7.636       7.418       7.114       6.664       6.238    
        5.868       5.561       5.362       5.120       4.741       4.385       4.095       3.843       3.620       3.397    
        3.103       2.660       2.121       1.636       1.212      0.8529      0.6103      0.3924      0.1881       0.000    
   9    10.00       9.938       9.869       9.803       9.754       9.704       9.648       9.590       9.528       9.467    
        9.377       9.262       9.150       9.042       8.930       8.786       8.615       8.470       8.362       8.255    
        8.164       8.076       7.948       7.823       7.694       7.526       7.212       6.803       6.382       6.071    
        5.768       5.514       5.296       4.994       4.643       4.346       4.126       3.941       3.743       3.499    
        3.147       2.664       2.114       1.633       1.221      0.8717      0.6158      0.3959      0.2024       0.000    
  10    10.00       9.936       9.863       9.809       9.764       9.716       9.664       9.614       9.542       9.453    
        9.344       9.223       9.116       9.015       8.899       8.721       8.541       8.415       8.316       8.216    
        8.130       8.008       7.866       7.725       7.575       7.330       6.927       6.503       6.145       5.895    
        5.700       5.486       5.222       4.917       4.590       4.341       4.175       4.015       3.801       3.522    
        3.119       2.619       2.117       1.706       1.321      0.9592      0.6351      0.4204      0.2260       0.000    
  11    10.00       9.922       9.863       9.819       9.774       9.733       9.686       9.616       9.518       9.418    
        9.308       9.189       9.090       8.969       8.810       8.640       8.492       8.380       8.289       8.188    
        8.059       7.903       7.712       7.551       7.299       6.956       6.613       6.301       6.001       5.815    
        5.665       5.392       5.105       4.852       4.602       4.412       4.239       4.035       3.772       3.435    
        3.056       2.671       2.190       1.786       1.420       1.061      0.7135      0.4130      0.1732       0.000    
  12    10.00       9.924       9.870       9.823       9.785       9.742       9.688       9.591       9.477       9.381    
        9.279       9.155       9.034       8.890       8.750       8.594       8.451       8.354       8.253       8.113    
        7.898       7.666       7.440       7.215       6.878       6.620       6.424       6.120       5.872       5.731    
        5.561       5.308       5.071       4.837       4.658       4.477       4.260       4.012       3.693       3.355    
        3.035       2.688       2.224       1.828       1.484       1.108      0.7507      0.3895      0.1293       0.000    
  13    10.00       9.939       9.887       9.837       9.792       9.742       9.655       9.544       9.436       9.338    
        9.223       9.103       8.977       8.827       8.673       8.526       8.421       8.301       8.168       7.891    
        7.568       7.322       7.072       6.772       6.513       6.388       6.169       5.901       5.765       5.636    
        5.435       5.217       5.030       4.856       4.703       4.535       4.277       3.944       3.638       3.320    
        3.016       2.657       2.161       1.793       1.497       1.099      0.6899      0.3362      0.1029       0.000    
  14    10.00       9.953       9.908       9.856       9.793       9.710       9.598       9.486       9.389       9.281    
        9.163       9.050       8.908       8.750       8.614       8.486       8.328       8.172       7.907       7.496    
        7.185       6.946       6.615       6.379       6.258       6.145       5.929       5.763       5.632       5.499    
        5.324       5.167       5.034       4.884       4.719       4.554       4.264       3.902       3.588       3.262    
        2.952       2.506       2.034       1.745       1.410       1.052      0.6904      0.3112      8.8626E-02   0.000    
  15    10.00       9.962       9.916       9.858       9.783       9.661       9.525       9.427       9.336       9.230    
        9.137       9.021       8.838       8.659       8.533       8.335       8.134       7.970       7.566       7.116    
        6.835       6.517       6.236       6.147       6.083       5.941       5.757       5.602       5.501       5.398    
        5.264       5.150       5.041       4.909       4.747       4.547       4.210       3.812       3.482       3.186    
        2.854       2.406       2.036       1.675       1.277      0.9617      0.6167      0.2852      9.6476E-02   0.000    
  16    10.00       9.969       9.919       9.847       9.738       9.593       9.472       9.393       9.313       9.206    
        9.094       8.923       8.697       8.523       8.342       8.114       7.979       7.647       7.079       6.684    
        6.437       6.164       6.063       6.011       5.893       5.711       5.568       5.490       5.440       5.351    
        5.239       5.135       5.043       4.911       4.717       4.447       4.066       3.724       3.465       3.155    
        2.771       2.331       1.934       1.542       1.201      0.8514      0.5530      0.2879      0.1028       0.000    
  17    10.00       9.964       9.905       9.809       9.685       9.535       9.428       9.360       9.264       9.151    
        8.952       8.713       8.522       8.344       8.112       7.883       7.602       7.072       6.598       6.351    
        6.156       6.011       5.940       5.819       5.638       5.509       5.466       5.441       5.391       5.301    
        5.203       5.113       5.016       4.884       4.608       4.258       3.964       3.743       3.494       3.121    
        2.637       2.208       1.839       1.472       1.076      0.7101      0.4712      0.2613      0.1088       0.000    
  18    10.00       9.950       9.873       9.762       9.600       9.474       9.398       9.296       9.181       9.011    
        8.758       8.559       8.379       8.109       7.805       7.490       7.095       6.633       6.343       6.153    
        6.005       5.879       5.765       5.602       5.477       5.437       5.418       5.394       5.331       5.245    
        5.163       5.072       4.950       4.747       4.465       4.183       3.955       3.775       3.463       3.006    
        2.541       2.093       1.722       1.378      0.9984      0.6548      0.3982      0.2183      0.1019       0.000    
  19    10.00       9.933       9.845       9.682       9.521       9.448       9.352       9.221       9.080       8.886    
        8.662       8.465       8.178       7.793       7.475       7.165       6.741       6.364       6.180       6.057    
        5.901       5.741       5.612       5.475       5.408       5.388       5.364       5.319       5.247       5.174    
        5.095       4.996       4.836       4.630       4.402       4.166       3.971       3.742       3.300       2.850    
        2.483       2.026       1.625       1.290      0.9170      0.5900      0.3583      0.2072      0.1037       0.000    
  20    10.00       9.913       9.779       9.610       9.491       9.407       9.301       9.160       8.993       8.813    
        8.579       8.285       7.896       7.542       7.260       6.889       6.503       6.311       6.155       5.987    
        5.818       5.650       5.493       5.392       5.346       5.309       5.257       5.211       5.142       5.077    
        5.001       4.903       4.745       4.566       4.363       4.163       3.958       3.602       3.140       2.759    
        2.352       1.910       1.554       1.219      0.8719      0.5301      0.3112      0.2090      0.1056       0.000    
  21    10.00       9.863       9.724       9.587       9.463       9.368       9.252       9.072       8.902       8.728    
        8.423       8.052       7.686       7.395       7.092       6.736       6.461       6.292       6.114       5.930    
        5.724       5.534       5.395       5.292       5.215       5.147       5.106       5.065       4.994       4.945    
        4.893       4.792       4.659       4.506       4.327       4.137       3.848       3.489       3.089       2.638    
        2.229       1.813       1.506       1.199      0.7577      0.4477      0.3188      0.2327      0.1118       0.000    
  22    10.00       9.843       9.680       9.545       9.440       9.326       9.156       8.977       8.825       8.594    
        8.272       7.884       7.569       7.326       6.994       6.666       6.433       6.260       6.083       5.862    
        5.624       5.432       5.252       5.093       4.990       4.941       4.909       4.855       4.832       4.803    
        4.763       4.686       4.587       4.447       4.282       4.098       3.798       3.441       2.971       2.526    
        2.173       1.796       1.455      0.9992      0.6237      0.4486      0.3373      0.2243      8.9062E-02   0.000    
  23    10.00       9.808       9.648       9.537       9.422       9.252       9.060       8.919       8.727       8.486    
        8.158       7.813       7.569       7.262       6.905       6.619       6.422       6.263       6.063       5.798    
        5.545       5.318       5.080       4.798       4.547       4.499       4.573       4.608       4.655       4.670    
        4.652       4.600       4.515       4.403       4.246       4.053       3.775       3.330       2.836       2.469    
        2.131       1.702       1.212      0.8161      0.6081      0.4602      0.3366      0.2135      9.9419E-02   0.000    
  24    10.00       9.781       9.665       9.537       9.374       9.187       9.035       8.882       8.694       8.416    
        8.114       7.846       7.577       7.209       6.831       6.604       6.442       6.277       6.036       5.768    
        5.517       5.256       4.893       4.243       3.263       3.595       4.044       4.328       4.478       4.538    
        4.552       4.519       4.459       4.345       4.193       3.999       3.653       3.184       2.764       2.375    
        1.963       1.509       1.074      0.7784      0.6049      0.4574      0.3287      0.2491      0.1371       0.000    
  25    10.00       9.809       9.687       9.532       9.360       9.193       9.038       8.892       8.662       8.385    
        8.132       7.873       7.546       7.141       6.848       6.642       6.461       6.267       6.042       5.794    
        5.523       5.263       4.601       3.215      6.9368E-02   2.625       3.592       4.076       4.331       4.446    
        4.476       4.460       4.399       4.266       4.105       3.868       3.510       3.058       2.679       2.258    
        1.783       1.354      0.9997      0.7699      0.6290      0.4917      0.3593      0.2647      0.1728       0.000    
  26    10.00       9.836       9.721       9.554       9.378       9.231       9.071       8.887       8.651       8.436    
        8.218       7.875       7.462       7.117       6.904       6.718       6.503       6.251       6.013       5.800    
        5.591       5.307       4.696       3.692       2.635       3.155       3.715       4.068       4.284       4.405    
        4.431       4.412       4.333       4.203       4.047       3.790       3.320       2.903       2.583       2.068    
        1.552       1.197      0.9891      0.8349      0.6852      0.5330      0.3952      0.2894      0.1728       0.000    
  27    10.00       9.872       9.732       9.590       9.433       9.263       9.104       8.926       8.715       8.510    
        8.219       7.815       7.457       7.177       6.990       6.781       6.499       6.222       6.028       5.859    
        5.685       5.392       4.935       4.381       3.793       3.814       4.012       4.196       4.334       4.403    
        4.411       4.383       4.305       4.171       3.961       3.558       3.113       2.785       2.290       1.783    
        1.413       1.182       1.030      0.8998      0.7618      0.5864      0.4222      0.3161      0.2124       0.000    
  28    10.00       9.884       9.765       9.630       9.487       9.327       9.162       8.984       8.785       8.549    
        8.193       7.827       7.517       7.248       7.054       6.843       6.602       6.331       6.074       5.906    
        5.751       5.541       5.237       4.824       4.453       4.287       4.299       4.382       4.415       4.433    
        4.413       4.368       4.273       4.084       3.770       3.347       2.967       2.516       2.027       1.690    
        1.420       1.230       1.080      0.9504      0.8086      0.6408      0.4783      0.3594      0.2191       0.000    
  29    10.00       9.889       9.777       9.675       9.538       9.392       9.233       9.055       8.845       8.529    
        8.179       7.860       7.566       7.345       7.121       6.894       6.674       6.457       6.209       5.992    
        5.825       5.649       5.440       5.187       4.850       4.669       4.599       4.568       4.545       4.494    
        4.427       4.333       4.210       3.951       3.573       3.189       2.791       2.335       1.961       1.717    
        1.496       1.286       1.122      0.9964      0.8582      0.6861      0.5188      0.3798      0.2214       0.000    
  30    10.00       9.899       9.806       9.716       9.597       9.463       9.322       9.125       8.864       8.543    
        8.183       7.858       7.613       7.394       7.174       6.954       6.771       6.585       6.362       6.130    
        5.931       5.769       5.588       5.406       5.189       4.991       4.908       4.780       4.695       4.573    
        4.430       4.270       4.088       3.810       3.499       3.133       2.721       2.301       2.026       1.801    
        1.551       1.345       1.187       1.036      0.8807      0.7284      0.5528      0.3958      0.2392       0.000    
  31    10.00       9.916       9.836       9.752       9.666       9.560       9.407       9.175       8.874       8.541    
        8.194       7.893       7.660       7.437       7.241       7.038       6.846       6.704       6.489       6.267    
        6.076       5.907       5.748       5.579       5.437       5.279       5.125       4.976       4.810       4.632    
        4.415       4.200       4.009       3.784       3.472       3.089       2.695       2.347       2.125       1.922    
        1.663       1.425       1.240       1.081      0.9263      0.7648      0.5887      0.4230      0.2328       0.000    
  32    10.00       9.929       9.868       9.795       9.711       9.616       9.465       9.202       8.921       8.618    
        8.253       7.940       7.709       7.499       7.302       7.131       6.962       6.783       6.609       6.399    
        6.197       6.014       5.855       5.696       5.567       5.457       5.285       5.103       4.880       4.638    
        4.406       4.194       3.987       3.768       3.470       3.124       2.793       2.488       2.249       2.021    
        1.780       1.531       1.334       1.147      0.9697      0.8234      0.6430      0.4238      0.2105       0.000    
  33    10.00       9.939       9.889       9.830       9.749       9.641       9.449       9.196       8.960       8.681    
        8.327       8.018       7.779       7.552       7.369       7.223       7.073       6.896       6.704       6.509    
        6.299       6.102       5.916       5.762       5.658       5.548       5.371       5.140       4.909       4.678    
        4.450       4.254       4.044       3.767       3.484       3.170       2.886       2.640       2.391       2.142    
        1.916       1.680       1.463       1.266       1.069      0.8950      0.6921      0.4333      0.2041       0.000    
  34    10.00       9.945       9.911       9.861       9.761       9.612       9.428       9.241       9.000       8.697    
        8.387       8.086       7.832       7.605       7.441       7.325       7.167       6.989       6.779       6.594    
        6.402       6.170       5.984       5.842       5.735       5.600       5.393       5.187       4.948       4.696    
        4.504       4.328       4.136       3.862       3.569       3.281       3.018       2.797       2.540       2.288    
        2.071       1.854       1.623       1.422       1.212       1.008      0.7489      0.4811      0.2537       0.000    
  35    10.00       9.955       9.916       9.852       9.729       9.572       9.438       9.279       9.058       8.734    
        8.404       8.127       7.871       7.675       7.535       7.406       7.242       7.045       6.842       6.637    
        6.453       6.247       6.057       5.922       5.806       5.673       5.453       5.204       4.950       4.711    
        4.566       4.399       4.192       3.982       3.730       3.421       3.155       2.974       2.713       2.429    
        2.224       2.006       1.786       1.589       1.353       1.125      0.8640      0.5767      0.2882       0.000    
  36    10.00       9.952       9.898       9.826       9.703       9.555       9.434       9.287       9.066       8.764    
        8.421       8.121       7.928       7.772       7.641       7.482       7.285       7.093       6.877       6.623    
        6.428       6.264       6.101       5.984       5.870       5.710       5.476       5.216       4.957       4.739    
        4.596       4.454       4.260       4.060       3.843       3.562       3.293       3.093       2.864       2.557    
        2.327       2.106       1.882       1.718       1.491       1.237      0.9772      0.6769      0.3443       0.000    
  37    10.00       9.937       9.878       9.799       9.675       9.540       9.405       9.262       9.060       8.736    
        8.389       8.142       8.022       7.874       7.702       7.543       7.319       7.086       6.821       6.566    
        6.416       6.285       6.132       6.010       5.878       5.687       5.469       5.199       4.968       4.802    
        4.653       4.496       4.296       4.120       3.894       3.625       3.411       3.217       2.961       2.656    
        2.380       2.164       1.985       1.802       1.587       1.351       1.101      0.7642      0.4141       0.000    
  38    10.00       9.931       9.853       9.770       9.656       9.523       9.373       9.225       9.010       8.710    
        8.444       8.246       8.093       7.959       7.767       7.524       7.271       6.991       6.706       6.542    
        6.424       6.266       6.120       6.015       5.872       5.665       5.401       5.158       5.021       4.885    
        4.719       4.541       4.348       4.167       3.945       3.696       3.504       3.306       3.001       2.682    
        2.442       2.241       2.059       1.876       1.684       1.457       1.199      0.8745      0.4538       0.000    
  39    10.00       9.912       9.834       9.751       9.639       9.491       9.329       9.173       8.977       8.735    
        8.527       8.379       8.208       8.019       7.740       7.426       7.113       6.814       6.641       6.535    
        6.377       6.208       6.103       6.005       5.870       5.631       5.368       5.205       5.082       4.940    
        4.763       4.591       4.395       4.201       4.011       3.804       3.583       3.351       3.037       2.721    
        2.469       2.268       2.126       1.980       1.772       1.539       1.279      0.9267      0.4539       0.000    
  40    10.00       9.897       9.821       9.738       9.624       9.470       9.304       9.145       8.979       8.778    
        8.607       8.479       8.269       7.966       7.612       7.261       6.945       6.740       6.625       6.498    
        6.325       6.179       6.084       5.967       5.811       5.618       5.440       5.275       5.128       4.995    
        4.832       4.639       4.438       4.255       4.079       3.869       3.630       3.397       3.055       2.710    
        2.482       2.314       2.167       2.041       1.831       1.571       1.332      0.9629      0.4754       0.000    
  41    10.00       9.905       9.816       9.723       9.598       9.458       9.312       9.170       9.011       8.831    
        8.669       8.514       8.230       7.845       7.454       7.136       6.888       6.714       6.596       6.452    
        6.277       6.152       6.047       5.923       5.785       5.645       5.513       5.354       5.179       5.025    
        4.877       4.693       4.490       4.322       4.137       3.932       3.688       3.362       2.983       2.718    
        2.532       2.358       2.222       2.064       1.841       1.585       1.373       1.022      0.5234       0.000    
  42    10.00       9.908       9.809       9.723       9.614       9.483       9.338       9.180       9.037       8.899    
        8.705       8.427       8.071       7.674       7.323       7.078       6.864       6.700       6.563       6.391    
        6.230       6.114       6.008       5.918       5.800       5.697       5.574       5.392       5.206       5.068    
        4.936       4.737       4.519       4.361       4.203       3.972       3.658       3.269       2.932       2.729    
        2.581       2.433       2.265       2.059       1.828       1.622       1.408       1.064      0.5476       0.000    
  43    10.00       9.909       9.818       9.731       9.644       9.528       9.382       9.226       9.071       8.873    
        8.595       8.276       7.911       7.529       7.257       7.053       6.850       6.680       6.515       6.344    
        6.194       6.086       6.007       5.937       5.834       5.721       5.601       5.424       5.257       5.143    
        4.977       4.757       4.552       4.396       4.214       3.932       3.563       3.187       2.953       2.793    
        2.636       2.476       2.270       2.048       1.838       1.638       1.446       1.061      0.4779       0.000    
  44    10.00       9.903       9.820       9.744       9.649       9.560       9.437       9.247       9.037       8.764    
        8.482       8.146       7.748       7.470       7.260       7.034       6.814       6.621       6.441       6.289    
        6.182       6.096       6.021       5.949       5.859       5.745       5.604       5.464       5.335       5.191    
        5.031       4.833       4.601       4.380       4.167       3.879       3.494       3.169       2.982       2.827    
        2.676       2.499       2.293       2.095       1.875       1.653       1.402      0.9084      0.4015       0.000    
  45    10.00       9.903       9.835       9.748       9.658       9.578       9.398       9.182       8.936       8.667    
        8.430       8.027       7.657       7.449       7.235       6.989       6.740       6.542       6.385       6.276    
        6.199       6.123       6.044       5.958       5.862       5.757       5.639       5.520       5.414       5.267    
        5.075       4.863       4.628       4.362       4.120       3.807       3.445       3.189       3.034       2.879    
        2.684       2.480       2.299       2.120       1.927       1.688       1.265      0.7615      0.3857       0.000    
  46    10.00       9.920       9.847       9.755       9.655       9.505       9.316       9.137       8.912       8.648    
        8.307       7.937       7.640       7.381       7.162       6.919       6.671       6.517       6.398       6.298    
        6.227       6.156       6.063       5.960       5.866       5.772       5.676       5.570       5.464       5.329    
        5.150       4.929       4.668       4.367       4.029       3.693       3.429       3.254       3.082       2.904    
        2.679       2.466       2.286       2.142       1.935       1.603       1.134      0.7174      0.3645       0.000    
  47    10.00       9.938       9.870       9.773       9.602       9.421       9.259       9.106       8.904       8.575    
        8.208       7.863       7.577       7.360       7.125       6.856       6.643       6.505       6.412       6.329    
        6.253       6.171       6.079       5.978       5.884       5.803       5.718       5.613       5.491       5.357    
        5.199       5.002       4.665       4.267       3.950       3.702       3.472       3.322       3.164       2.916    
        2.648       2.424       2.256       2.139       1.880       1.482       1.053      0.6903      0.3543       0.000    
  48    10.00       9.945       9.874       9.729       9.556       9.406       9.233       9.078       8.863       8.516    
        8.116       7.804       7.572       7.313       7.040       6.799       6.638       6.504       6.414       6.353    
        6.277       6.179       6.078       5.990       5.914       5.846       5.765       5.648       5.504       5.348    
        5.185       4.959       4.611       4.284       4.006       3.760       3.545       3.375       3.171       2.874    
        2.591       2.411       2.271       2.051       1.705       1.349       1.005      0.6953      0.3740       0.000    
  49    10.00       9.942       9.840       9.711       9.569       9.394       9.221       9.046       8.780       8.413    
        8.068       7.776       7.497       7.251       7.041       6.814       6.607       6.485       6.426       6.367    
        6.295       6.184       6.072       5.999       5.937       5.883       5.792       5.652       5.488       5.339    
        5.168       4.892       4.598       4.379       4.124       3.836       3.575       3.370       3.135       2.817    
        2.588       2.431       2.222       1.891       1.583       1.293      0.9938      0.6952      0.3728       0.000    
  50    10.00       9.935       9.828       9.696       9.568       9.405       9.210       8.993       8.712       8.422    
        8.062       7.697       7.438       7.241       7.064       6.808       6.578       6.487       6.434       6.375    
        6.303       6.189       6.075       6.004       5.951       5.901       5.798       5.637       5.471       5.329    
        5.154       4.870       4.642       4.445       4.179       3.893       3.620       3.339       3.018       2.752    
        2.634       2.455       2.133       1.801       1.572       1.291       1.008      0.6809      0.3036       0.000    

 HEAD WILL BE SAVED ON UNIT   51 AT END OF TIME STEP  53, STRESS PERIOD    2

 DRAWDOWN WILL BE SAVED ON UNIT   52 AT END OF TIME STEP  53, STRESS PERIOD    2
1
  VOLUMETRIC BUDGET FOR ENTIRE MODEL AT END OF TIME STEP 53 IN STRESS PERIOD   2
  ------------------------------------------------------------------------------

     CUMULATIVE VOLUMES      L**3       RATES FOR THIS TIME STEP      L**3/T
     ------------------                 ------------------------

           IN:                                      IN:
           ---                                      ---
             STORAGE =       25898.8711               STORAGE =         458.1085
       CONSTANT HEAD =       32776.9688         CONSTANT HEAD =         633.0870
               WELLS =           0.0000                 WELLS =           0.0000

            TOTAL IN =       58675.8398              TOTAL IN =        1091.1954

          OUT:                                     OUT:
          ----                                     ----
             STORAGE =       9.4320E-03               STORAGE =           0.0000
       CONSTANT HEAD =       32175.8242         CONSTANT HEAD =         591.1955
               WELLS =       26500.0000                 WELLS =         500.0000

           TOTAL OUT =       58675.8320             TOTAL OUT =        1091.1956

            IN - OUT =       7.8125E-03              IN - OUT =      -1.2207E-04

 PERCENT DISCREPANCY =           0.00     PERCENT DISCREPANCY =           0.00






          TIME SUMMARY AT END OF TIME STEP  53 IN STRESS PERIOD    2
                    SECONDS     MINUTES      HOURS       DAYS        YEARS
                    -----------------------------------------------------------
   TIME STEP LENGTH  86400.      1440.0      24.000      1.0000     2.73785E-03
 STRESS PERIOD TIME 4.57920E+06  76320.      1272.0      53.000     0.14511    
         TOTAL TIME 4.66560E+06  77760.      1296.0      54.000     0.14784    
1
 
 SOLVING FOR HEAD 

 OUTPUT CONTROL FOR STRESS PERIOD    2   TIME STEP  54
    SAVE HEAD FOR ALL LAYERS
    SAVE DRAWDOWN FOR ALL LAYERS
    SAVE BUDGET
    PRINT HEAD FOR ALL LAYERS
    PRINT BUDGET
 UBDSV1 SAVING "         STORAGE" ON UNIT  53 AT TIME STEP 54, STRESS PERIOD   2
 UBDSV2 SAVING "   CONSTANT HEAD" ON UNIT  53 AT TIME STEP 54, STRESS PERIOD   2
 UBDSV1 SAVING "FLOW RIGHT FACE " ON UNIT  53 AT TIME STEP 54, STRESS PERIOD   2
 UBDSV1 SAVING "FLOW FRONT FACE " ON UNIT  53 AT TIME STEP 54, STRESS PERIOD   2
1
              HEAD IN LAYER   1 AT END OF TIME STEP  54 IN STRESS PERIOD    2
  ---------------------------------------------------------------------------

            1           2           3           4           5           6           7           8           9          10
           11          12          13          14          15          16          17          18          19          20
           21          22          23          24          25          26          27          28          29          30
           31          32          33          34          35          36          37          38          39          40
           41          42          43          44          45          46          47          48          49          50
 ........................................................................................................................
   1    10.00       9.957       9.896       9.826       9.758       9.681       9.607       9.535       9.444       9.355    
        9.286       9.218       9.149       9.081       8.972       8.841       8.694       8.578       8.519       8.449    
        8.367       8.301       8.236       8.162       8.062       7.867       7.646       7.492       7.341       7.200    
        7.015       6.719       6.341       5.921       5.485       5.021       4.562       4.179       3.680       3.136    
        2.690       2.263       1.790       1.394       1.149      0.9426      0.7788      0.6603      0.4432       0.000    
   2    10.00       9.956       9.900       9.830       9.761       9.693       9.620       9.525       9.426       9.352    
        9.292       9.235       9.176       9.093       8.968       8.830       8.692       8.578       8.517       8.439    
        8.356       8.306       8.254       8.177       8.050       7.859       7.659       7.500       7.348       7.210    
        7.004       6.694       6.297       5.818       5.353       4.904       4.506       4.137       3.628       3.103    
        2.655       2.176       1.744       1.433       1.204       1.026      0.8232      0.6426      0.3585       0.000    
   3    10.00       9.950       9.895       9.832       9.772       9.702       9.609       9.509       9.438       9.372    
        9.306       9.253       9.201       9.121       8.993       8.823       8.672       8.580       8.508       8.429    
        8.362       8.310       8.256       8.152       8.014       7.844       7.670       7.545       7.368       7.188    
        6.929       6.561       6.107       5.643       5.231       4.813       4.424       4.026       3.498       3.012    
        2.628       2.187       1.792       1.508       1.281       1.097      0.8564      0.5743      0.2604       0.000    
   4    10.00       9.950       9.896       9.835       9.766       9.686       9.590       9.513       9.452       9.385    
        9.326       9.282       9.224       9.133       9.009       8.828       8.671       8.584       8.504       8.433    
        8.360       8.296       8.227       8.118       7.982       7.829       7.671       7.517       7.360       7.155    
        6.830       6.343       5.860       5.508       5.166       4.735       4.267       3.801       3.379       3.012    
        2.654       2.245       1.875       1.619       1.363       1.129      0.8319      0.5165      0.2474       0.000    
   5    10.00       9.946       9.892       9.823       9.754       9.679       9.593       9.526       9.463       9.400    
        9.349       9.306       9.231       9.124       8.986       8.821       8.688       8.593       8.514       8.419    
        8.331       8.261       8.177       8.071       7.949       7.792       7.635       7.493       7.335       7.085    
        6.616       6.070       5.684       5.408       5.070       4.604       4.121       3.699       3.384       3.053    
        2.703       2.327       1.961       1.723       1.449       1.111      0.7573      0.4606      0.2317       0.000    
   6    10.00       9.939       9.874       9.817       9.753       9.672       9.599       9.542       9.476       9.416    
        9.368       9.316       9.221       9.100       8.980       8.842       8.707       8.598       8.492       8.381    
        8.294       8.211       8.138       8.042       7.887       7.732       7.606       7.461       7.241       6.861    
        6.343       5.847       5.526       5.288       4.982       4.522       4.043       3.689       3.423       3.124    
        2.805       2.475       2.101       1.783       1.420       1.048      0.6688      0.3974      0.2188       0.000    
   7    10.00       9.927       9.864       9.811       9.745       9.677       9.612       9.559       9.497       9.439    
        9.379       9.300       9.196       9.082       8.968       8.859       8.719       8.569       8.447       8.338    
        8.246       8.167       8.103       7.982       7.823       7.693       7.564       7.368       7.012       6.525    
        6.031       5.631       5.414       5.203       4.848       4.416       4.095       3.753       3.464       3.270    
        2.968       2.616       2.177       1.722       1.316      0.9104      0.5761      0.4003      0.2061       0.000    
   8    10.00       9.926       9.869       9.809       9.743       9.683       9.626       9.572       9.515       9.459    
        9.381       9.279       9.176       9.069       8.963       8.841       8.664       8.506       8.407       8.302    
        8.199       8.131       8.037       7.906       7.767       7.630       7.413       7.108       6.658       6.231    
        5.862       5.554       5.356       5.114       4.735       4.380       4.090       3.839       3.616       3.394    
        3.100       2.658       2.119       1.634       1.211      0.8522      0.6098      0.3921      0.1880       0.000    
   9    10.00       9.938       9.869       9.803       9.754       9.704       9.647       9.589       9.526       9.466    
        9.375       9.260       9.148       9.040       8.927       8.782       8.611       8.466       8.358       8.251    
        8.159       8.071       7.943       7.818       7.689       7.520       7.206       6.796       6.375       6.063    
        5.760       5.507       5.290       4.988       4.637       4.340       4.121       3.937       3.738       3.495    
        3.143       2.661       2.112       1.631       1.220      0.8710      0.6153      0.3956      0.2023       0.000    
  10    10.00       9.935       9.862       9.808       9.763       9.715       9.663       9.613       9.541       9.452    
        9.342       9.221       9.113       9.012       8.896       8.718       8.537       8.411       8.311       8.211    
        8.125       8.003       7.861       7.720       7.569       7.324       6.920       6.496       6.137       5.887    
        5.693       5.479       5.215       4.910       4.584       4.336       4.170       4.010       3.796       3.517    
        3.115       2.616       2.115       1.705       1.320      0.9584      0.6346      0.4201      0.2258       0.000    
  11    10.00       9.922       9.863       9.818       9.773       9.732       9.685       9.615       9.516       9.416    
        9.306       9.187       9.088       8.966       8.807       8.636       8.488       8.376       8.285       8.183    
        8.054       7.897       7.706       7.544       7.292       6.949       6.605       6.292       5.992       5.806    
        5.656       5.384       5.097       4.845       4.596       4.405       4.233       4.030       3.767       3.430    
        3.053       2.668       2.188       1.784       1.418       1.060      0.7130      0.4126      0.1731       0.000    
  12    10.00       9.924       9.870       9.822       9.784       9.741       9.687       9.590       9.475       9.379    
        9.276       9.153       9.031       8.886       8.746       8.590       8.446       8.349       8.248       8.107    
        7.892       7.660       7.433       7.207       6.869       6.610       6.415       6.110       5.862       5.722    
        5.551       5.300       5.062       4.829       4.651       4.470       4.253       4.006       3.688       3.350    
        3.032       2.684       2.222       1.826       1.482       1.107      0.7500      0.3892      0.1292       0.000    
  13    10.00       9.939       9.887       9.837       9.792       9.741       9.654       9.542       9.435       9.336    
        9.221       9.100       8.974       8.823       8.669       8.521       8.416       8.296       8.162       7.884    
        7.560       7.313       7.063       6.762       6.503       6.378       6.159       5.891       5.755       5.626    
        5.425       5.208       5.021       4.848       4.695       4.527       4.270       3.938       3.632       3.316    
        3.012       2.654       2.158       1.791       1.496       1.098      0.6892      0.3359      0.1028       0.000    
  14    10.00       9.953       9.908       9.855       9.793       9.709       9.596       9.484       9.387       9.279    
        9.160       9.047       8.904       8.746       8.609       8.481       8.322       8.166       7.900       7.487    
        7.176       6.936       6.604       6.368       6.247       6.134       5.918       5.751       5.621       5.488    
        5.314       5.157       5.024       4.875       4.711       4.545       4.257       3.896       3.582       3.257    
        2.947       2.503       2.032       1.743       1.408       1.050      0.6897      0.3109      8.8539E-02   0.000    
  15    10.00       9.962       9.916       9.857       9.782       9.660       9.524       9.425       9.334       9.227    
        9.134       9.017       8.834       8.654       8.527       8.329       8.128       7.963       7.557       7.106    
        6.824       6.505       6.224       6.135       6.071       5.929       5.745       5.590       5.489       5.386    
        5.253       5.139       5.030       4.899       4.738       4.538       4.202       3.805       3.476       3.181    
        2.850       2.403       2.033       1.673       1.276      0.9606      0.6160      0.2848      9.6374E-02   0.000    
  16    10.00       9.969       9.919       9.846       9.737       9.592       9.470       9.391       9.311       9.203    
        9.091       8.919       8.692       8.517       8.336       8.106       7.971       7.638       7.068       6.672    
        6.424       6.151       6.050       5.998       5.880       5.698       5.555       5.477       5.427       5.339    
        5.227       5.124       5.032       4.901       4.708       4.439       4.058       3.717       3.459       3.150    
        2.767       2.328       1.931       1.540       1.199      0.8504      0.5523      0.2875      0.1027       0.000    
  17    10.00       9.964       9.905       9.808       9.684       9.534       9.426       9.357       9.261       9.147    
        8.948       8.708       8.516       8.338       8.104       7.875       7.592       7.060       6.585       6.338    
        6.143       5.997       5.927       5.806       5.625       5.495       5.453       5.428       5.378       5.288    
        5.191       5.101       5.005       4.873       4.598       4.249       3.956       3.736       3.487       3.115    
        2.632       2.204       1.836       1.470       1.075      0.7092      0.4706      0.2610      0.1087       0.000    
  18    10.00       9.950       9.873       9.761       9.598       9.472       9.396       9.294       9.177       9.007    
        8.753       8.553       8.372       8.101       7.796       7.480       7.083       6.620       6.329       6.139    
        5.991       5.865       5.751       5.588       5.463       5.422       5.404       5.380       5.318       5.232    
        5.150       5.060       4.938       4.735       4.454       4.174       3.946       3.767       3.456       3.000    
        2.536       2.089       1.720       1.376      0.9971      0.6540      0.3977      0.2180      0.1018       0.000    
  19    10.00       9.933       9.844       9.681       9.519       9.445       9.349       9.217       9.076       8.881    
        8.656       8.458       8.170       7.783       7.464       7.153       6.728       6.351       6.166       6.042    
        5.886       5.726       5.597       5.461       5.393       5.374       5.350       5.305       5.233       5.160    
        5.081       4.983       4.824       4.619       4.391       4.156       3.962       3.734       3.293       2.845    
        2.478       2.023       1.623       1.288      0.9158      0.5892      0.3579      0.2069      0.1036       0.000    
  20    10.00       9.913       9.778       9.608       9.489       9.404       9.298       9.157       8.988       8.808    
        8.572       8.277       7.887       7.531       7.249       6.877       6.490       6.297       6.141       5.972    
        5.803       5.636       5.478       5.377       5.331       5.294       5.242       5.196       5.127       5.063    
        4.987       4.890       4.733       4.554       4.352       4.153       3.949       3.594       3.133       2.754    
        2.348       1.906       1.552       1.217      0.8706      0.5294      0.3108      0.2088      0.1055       0.000    
  21    10.00       9.862       9.723       9.585       9.460       9.365       9.248       9.068       8.897       8.722    
        8.415       8.043       7.676       7.383       7.080       6.723       6.447       6.278       6.099       5.915    
        5.709       5.519       5.380       5.277       5.200       5.132       5.091       5.050       4.979       4.930    
        4.878       4.778       4.646       4.493       4.315       4.126       3.839       3.481       3.083       2.633    
        2.225       1.810       1.503       1.197      0.7567      0.4471      0.3184      0.2324      0.1117       0.000    
  22    10.00       9.842       9.678       9.543       9.438       9.323       9.152       8.972       8.820       8.588    
        8.264       7.875       7.558       7.314       6.982       6.652       6.419       6.246       6.068       5.847    
        5.609       5.417       5.237       5.078       4.975       4.926       4.894       4.840       4.816       4.788    
        4.748       4.671       4.573       4.434       4.270       4.087       3.789       3.433       2.964       2.521    
        2.169       1.793       1.453      0.9978      0.6229      0.4481      0.3369      0.2240      8.8957E-02   0.000    
  23    10.00       9.807       9.647       9.535       9.419       9.249       9.055       8.914       8.721       8.479    
        8.149       7.803       7.558       7.250       6.892       6.605       6.408       6.249       6.049       5.783    
        5.530       5.303       5.065       4.782       4.531       4.483       4.557       4.593       4.640       4.654    
        4.637       4.585       4.501       4.389       4.233       4.042       3.765       3.322       2.829       2.464    
        2.127       1.699       1.210      0.8150      0.6074      0.4596      0.3362      0.2133      9.9306E-02   0.000    
  24    10.00       9.780       9.664       9.535       9.371       9.183       9.031       8.877       8.688       8.408    
        8.105       7.836       7.567       7.197       6.818       6.591       6.428       6.263       6.021       5.753    
        5.502       5.241       4.877       4.227       3.247       3.578       4.028       4.311       4.462       4.522    
        4.536       4.504       4.445       4.331       4.180       3.987       3.643       3.176       2.758       2.370    
        1.959       1.506       1.073      0.7774      0.6042      0.4568      0.3284      0.2488      0.1369       0.000    
  25    10.00       9.808       9.685       9.530       9.358       9.190       9.033       8.887       8.655       8.378    
        8.123       7.864       7.535       7.129       6.835       6.628       6.447       6.252       6.027       5.779    
        5.507       5.248       4.585       3.199      5.1449E-02   2.608       3.575       4.059       4.315       4.429    
        4.460       4.444       4.384       4.252       4.092       3.857       3.500       3.051       2.673       2.254    
        1.780       1.352      0.9984      0.7690      0.6283      0.4911      0.3589      0.2644      0.1726       0.000    
  26    10.00       9.836       9.720       9.552       9.375       9.228       9.066       8.882       8.644       8.428    
        8.209       7.865       7.451       7.105       6.891       6.705       6.489       6.237       5.998       5.785    
        5.576       5.291       4.680       3.675       2.618       3.138       3.698       4.051       4.267       4.389    
        4.415       4.397       4.318       4.189       4.035       3.779       3.312       2.897       2.577       2.065    
        1.549       1.196      0.9879      0.8340      0.6844      0.5324      0.3948      0.2892      0.1727       0.000    
  27    10.00       9.872       9.731       9.588       9.430       9.260       9.100       8.921       8.710       8.504    
        8.211       7.806       7.446       7.166       6.977       6.768       6.485       6.208       6.014       5.844    
        5.670       5.376       4.919       4.365       3.776       3.797       3.995       4.179       4.317       4.387    
        4.396       4.367       4.290       4.158       3.949       3.548       3.105       2.779       2.286       1.780    
        1.411       1.180       1.029      0.8988      0.7610      0.5858      0.4218      0.3158      0.2122       0.000    
  28    10.00       9.883       9.764       9.628       9.484       9.324       9.158       8.979       8.780       8.542    
        8.184       7.817       7.506       7.237       7.041       6.830       6.589       6.317       6.060       5.892    
        5.736       5.526       5.222       4.808       4.437       4.270       4.282       4.365       4.399       4.417    
        4.398       4.353       4.259       4.071       3.760       3.339       2.961       2.512       2.024       1.688    
        1.418       1.229       1.079      0.9494      0.8078      0.6401      0.4779      0.3591      0.2189       0.000    
  29    10.00       9.889       9.776       9.674       9.536       9.389       9.230       9.051       8.840       8.523    
        8.171       7.851       7.556       7.333       7.109       6.881       6.661       6.444       6.195       5.978    
        5.811       5.634       5.425       5.171       4.834       4.653       4.583       4.551       4.529       4.478    
        4.412       4.319       4.197       3.940       3.564       3.182       2.785       2.331       1.959       1.714    
        1.494       1.285       1.121      0.9954      0.8573      0.6855      0.5183      0.3794      0.2212       0.000    
  30    10.00       9.899       9.805       9.715       9.595       9.461       9.319       9.121       8.859       8.536    
        8.175       7.849       7.603       7.384       7.163       6.943       6.758       6.572       6.348       6.116    
        5.917       5.754       5.573       5.390       5.173       4.975       4.892       4.764       4.680       4.558    
        4.417       4.258       4.078       3.801       3.491       3.127       2.716       2.297       2.023       1.799    
        1.549       1.343       1.186       1.035      0.8799      0.7277      0.5523      0.3955      0.2390       0.000    
  31    10.00       9.916       9.835       9.751       9.664       9.558       9.405       9.171       8.869       8.535    
        8.187       7.884       7.650       7.427       7.230       7.027       6.834       6.692       6.476       6.254    
        6.062       5.893       5.733       5.564       5.422       5.265       5.110       4.961       4.796       4.619    
        4.404       4.190       4.000       3.776       3.465       3.084       2.691       2.344       2.122       1.920    
        1.661       1.424       1.239       1.080      0.9254      0.7641      0.5882      0.4227      0.2326       0.000    
  32    10.00       9.929       9.867       9.794       9.710       9.614       9.462       9.199       8.916       8.612    
        8.245       7.932       7.699       7.489       7.292       7.120       6.950       6.771       6.597       6.386    
        6.184       6.000       5.842       5.682       5.553       5.443       5.271       5.089       4.868       4.626    
        4.397       4.185       3.979       3.762       3.465       3.119       2.789       2.485       2.247       2.019    
        1.778       1.530       1.333       1.146      0.9689      0.8228      0.6425      0.4234      0.2103       0.000    
  33    10.00       9.939       9.888       9.830       9.748       9.640       9.447       9.193       8.956       8.676    
        8.321       8.010       7.771       7.543       7.359       7.213       7.062       6.885       6.692       6.497    
        6.286       6.089       5.903       5.749       5.644       5.534       5.358       5.128       4.898       4.669    
        4.442       4.246       4.037       3.761       3.479       3.166       2.882       2.637       2.389       2.140    
        1.914       1.678       1.462       1.266       1.068      0.8944      0.6917      0.4330      0.2040       0.000    
  34    10.00       9.945       9.911       9.860       9.760       9.611       9.426       9.238       8.996       8.693    
        8.381       8.079       7.824       7.596       7.432       7.316       7.157       6.978       6.768       6.583    
        6.390       6.158       5.972       5.830       5.723       5.588       5.382       5.176       4.939       4.688    
        4.497       4.322       4.130       3.857       3.565       3.277       3.015       2.794       2.538       2.287    
        2.070       1.853       1.622       1.421       1.212       1.007      0.7485      0.4809      0.2536       0.000    
  35    10.00       9.955       9.916       9.852       9.728       9.571       9.436       9.277       9.055       8.730    
        8.399       8.120       7.863       7.667       7.526       7.397       7.232       7.035       6.832       6.626    
        6.443       6.236       6.046       5.911       5.795       5.662       5.443       5.195       4.942       4.704    
        4.560       4.394       4.187       3.978       3.726       3.418       3.152       2.971       2.711       2.427    
        2.223       2.005       1.785       1.588       1.353       1.124      0.8637      0.5765      0.2881       0.000    
  36    10.00       9.952       9.898       9.825       9.702       9.554       9.432       9.284       9.063       8.760    
        8.416       8.115       7.922       7.765       7.633       7.474       7.277       7.084       6.868       6.613    
        6.419       6.254       6.091       5.974       5.861       5.701       5.468       5.209       4.951       4.733    
        4.591       4.449       4.256       4.056       3.840       3.559       3.291       3.091       2.862       2.555    
        2.325       2.105       1.881       1.718       1.491       1.237      0.9769      0.6768      0.3442       0.000    
  37    10.00       9.937       9.877       9.799       9.675       9.539       9.403       9.260       9.057       8.732    
        8.384       8.137       8.016       7.868       7.695       7.536       7.312       7.078       6.813       6.559    
        6.408       6.277       6.124       6.002       5.870       5.680       5.462       5.193       4.964       4.798    
        4.649       4.492       4.293       4.117       3.891       3.622       3.409       3.215       2.959       2.654    
        2.379       2.163       1.984       1.801       1.586       1.350       1.101      0.7641      0.4140       0.000    
  38    10.00       9.931       9.853       9.769       9.655       9.522       9.372       9.223       9.008       8.707    
        8.440       8.241       8.088       7.953       7.761       7.518       7.264       6.984       6.700       6.535    
        6.417       6.259       6.114       6.008       5.866       5.659       5.396       5.154       5.017       4.881    
        4.716       4.538       4.345       4.164       3.943       3.694       3.503       3.304       3.000       2.680    
        2.441       2.241       2.059       1.876       1.684       1.456       1.198      0.8743      0.4537       0.000    
  39    10.00       9.912       9.834       9.750       9.638       9.490       9.328       9.171       8.975       8.732    
        8.524       8.375       8.204       8.013       7.734       7.421       7.108       6.809       6.636       6.530    
        6.372       6.203       6.097       5.999       5.865       5.627       5.365       5.201       5.079       4.937    
        4.760       4.589       4.393       4.198       4.009       3.803       3.581       3.350       3.036       2.720    
        2.468       2.268       2.126       1.980       1.772       1.539       1.279      0.9266      0.4538       0.000    
  40    10.00       9.897       9.821       9.737       9.624       9.469       9.303       9.144       8.977       8.775    
        8.604       8.476       8.265       7.961       7.607       7.257       6.941       6.736       6.621       6.493    
        6.320       6.174       6.079       5.963       5.807       5.615       5.438       5.272       5.126       4.992    
        4.829       4.637       4.436       4.253       4.077       3.867       3.628       3.395       3.054       2.709    
        2.481       2.314       2.166       2.041       1.830       1.571       1.332      0.9627      0.4753       0.000    
  41    10.00       9.905       9.815       9.723       9.597       9.457       9.311       9.169       9.009       8.829    
        8.666       8.511       8.227       7.841       7.451       7.133       6.884       6.710       6.592       6.448    
        6.273       6.148       6.043       5.920       5.782       5.642       5.510       5.352       5.177       5.023    
        4.875       4.691       4.488       4.320       4.136       3.931       3.686       3.361       2.983       2.717    
        2.532       2.358       2.221       2.063       1.841       1.584       1.373       1.022      0.5233       0.000    
  42    10.00       9.908       9.808       9.723       9.614       9.483       9.337       9.179       9.036       8.897    
        8.703       8.425       8.068       7.671       7.320       7.075       6.861       6.697       6.560       6.388    
        6.227       6.112       6.005       5.916       5.798       5.694       5.572       5.390       5.204       5.066    
        4.934       4.735       4.517       4.359       4.201       3.971       3.657       3.268       2.931       2.729    
        2.581       2.433       2.264       2.059       1.828       1.621       1.408       1.064      0.5475       0.000    
  43    10.00       9.909       9.818       9.730       9.643       9.527       9.381       9.225       9.070       8.872    
        8.594       8.274       7.909       7.527       7.255       7.050       6.848       6.678       6.512       6.342    
        6.192       6.084       6.004       5.935       5.831       5.718       5.599       5.422       5.255       5.141    
        4.975       4.755       4.550       4.394       4.213       3.931       3.562       3.187       2.952       2.792    
        2.635       2.475       2.270       2.048       1.837       1.637       1.446       1.061      0.4779       0.000    
  44    10.00       9.903       9.820       9.744       9.648       9.559       9.436       9.246       9.036       8.763    
        8.481       8.144       7.746       7.468       7.258       7.032       6.812       6.618       6.439       6.287    
        6.180       6.093       6.019       5.947       5.857       5.743       5.602       5.462       5.333       5.189    
        5.030       4.831       4.599       4.379       4.166       3.878       3.493       3.168       2.981       2.826    
        2.675       2.499       2.293       2.095       1.874       1.652       1.402      0.9083      0.4014       0.000    
  45    10.00       9.903       9.835       9.747       9.657       9.578       9.398       9.181       8.935       8.666    
        8.429       8.025       7.655       7.447       7.233       6.987       6.738       6.540       6.383       6.274    
        6.197       6.121       6.042       5.956       5.860       5.755       5.637       5.518       5.412       5.265    
        5.074       4.861       4.626       4.360       4.118       3.806       3.444       3.188       3.034       2.878    
        2.683       2.479       2.298       2.119       1.927       1.688       1.264      0.7614      0.3857       0.000    
  46    10.00       9.920       9.847       9.754       9.655       9.505       9.316       9.136       8.911       8.647    
        8.306       7.936       7.638       7.379       7.160       6.917       6.669       6.515       6.397       6.296    
        6.225       6.154       6.061       5.958       5.864       5.770       5.674       5.568       5.462       5.327    
        5.149       4.927       4.666       4.365       4.028       3.692       3.428       3.254       3.082       2.903    
        2.678       2.466       2.286       2.142       1.935       1.602       1.134      0.7173      0.3644       0.000    
  47    10.00       9.938       9.870       9.773       9.602       9.420       9.258       9.105       8.903       8.574    
        8.207       7.862       7.576       7.358       7.124       6.854       6.641       6.503       6.410       6.327    
        6.251       6.169       6.077       5.976       5.882       5.801       5.716       5.611       5.489       5.355    
        5.197       5.001       4.664       4.266       3.949       3.701       3.471       3.322       3.164       2.915    
        2.647       2.424       2.256       2.139       1.880       1.482       1.053      0.6902      0.3543       0.000    
  48    10.00       9.945       9.874       9.729       9.556       9.405       9.232       9.077       8.862       8.515    
        8.115       7.803       7.571       7.312       7.039       6.797       6.637       6.503       6.413       6.351    
        6.275       6.177       6.076       5.988       5.913       5.844       5.763       5.647       5.502       5.346    
        5.183       4.958       4.610       4.283       4.005       3.759       3.544       3.375       3.171       2.873    
        2.590       2.411       2.270       2.051       1.704       1.349       1.005      0.6952      0.3740       0.000    
  49    10.00       9.942       9.839       9.710       9.569       9.394       9.220       9.046       8.779       8.412    
        8.067       7.775       7.496       7.250       7.039       6.812       6.605       6.484       6.424       6.365    
        6.294       6.183       6.071       5.997       5.935       5.881       5.790       5.650       5.486       5.337    
        5.166       4.891       4.597       4.377       4.123       3.835       3.574       3.369       3.134       2.817    
        2.588       2.431       2.222       1.891       1.583       1.293      0.9937      0.6951      0.3728       0.000    
  50    10.00       9.935       9.828       9.696       9.568       9.404       9.210       8.992       8.712       8.422    
        8.061       7.696       7.436       7.240       7.062       6.806       6.576       6.486       6.433       6.373    
        6.302       6.187       6.073       6.002       5.949       5.899       5.796       5.635       5.469       5.328    
        5.152       4.869       4.641       4.444       4.178       3.892       3.620       3.339       3.017       2.752    
        2.634       2.455       2.133       1.801       1.571       1.290       1.008      0.6809      0.3036       0.000    

 HEAD WILL BE SAVED ON UNIT   51 AT END OF TIME STEP  54, STRESS PERIOD    2

 DRAWDOWN WILL BE SAVED ON UNIT   52 AT END OF TIME STEP  54, STRESS PERIOD    2
1
  VOLUMETRIC BUDGET FOR ENTIRE MODEL AT END OF TIME STEP 54 IN STRESS PERIOD   2
  ------------------------------------------------------------------------------

     CUMULATIVE VOLUMES      L**3       RATES FOR THIS TIME STEP      L**3/T
     ------------------                 ------------------------

           IN:                                      IN:
           ---                                      ---
             STORAGE =       26355.0840               STORAGE =         456.2120
       CONSTANT HEAD =       33411.5703         CONSTANT HEAD =         634.6010
               WELLS =           0.0000                 WELLS =           0.0000

            TOTAL IN =       59766.6562              TOTAL IN =        1090.8130

          OUT:                                     OUT:
          ----                                     ----
             STORAGE =       9.4320E-03               STORAGE =           0.0000
       CONSTANT HEAD =       32766.6367         CONSTANT HEAD =         590.8132
               WELLS =       27000.0000                 WELLS =         500.0000

           TOTAL OUT =       59766.6445             TOTAL OUT =        1090.8132

            IN - OUT =       1.1719E-02              IN - OUT =      -2.4414E-04

 PERCENT DISCREPANCY =           0.00     PERCENT DISCREPANCY =           0.00






          TIME SUMMARY AT END OF TIME STEP  54 IN STRESS PERIOD    2
                    SECONDS     MINUTES      HOURS       DAYS        YEARS
                    -----------------------------------------------------------
   TIME STEP LENGTH  86400.      1440.0      24.000      1.0000     2.73785E-03
 STRESS PERIOD TIME 4.66560E+06  77760.      1296.0      54.000     0.14784    
         TOTAL TIME 4.75200E+06  79200.      1320.0      55.000     0.15058    
1
 
 SOLVING FOR HEAD 

 OUTPUT CONTROL FOR STRESS PERIOD    2   TIME STEP  55
    SAVE HEAD FOR ALL LAYERS
    SAVE DRAWDOWN FOR ALL LAYERS
    SAVE BUDGET
    PRINT HEAD FOR ALL LAYERS
    PRINT BUDGET
 UBDSV1 SAVING "         STORAGE" ON UNIT  53 AT TIME STEP 55, STRESS PERIOD   2
 UBDSV2 SAVING "   CONSTANT HEAD" ON UNIT  53 AT TIME STEP 55, STRESS PERIOD   2
 UBDSV1 SAVING "FLOW RIGHT FACE " ON UNIT  53 AT TIME STEP 55, STRESS PERIOD   2
 UBDSV1 SAVING "FLOW FRONT FACE " ON UNIT  53 AT TIME STEP 55, STRESS PERIOD   2
1
              HEAD IN LAYER   1 AT END OF TIME STEP  55 IN STRESS PERIOD    2
  ---------------------------------------------------------------------------

            1           2           3           4           5           6           7           8           9          10
           11          12          13          14          15          16          17          18          19          20
           21          22          23          24          25          26          27          28          29          30
           31          32          33          34          35          36          37          38          39          40
           41          42          43          44          45          46          47          48          49          50
 ........................................................................................................................
   1    10.00       9.957       9.895       9.825       9.757       9.680       9.606       9.534       9.443       9.354    
        9.284       9.216       9.147       9.079       8.970       8.838       8.691       8.575       8.515       8.446    
        8.363       8.297       8.233       8.158       8.059       7.863       7.642       7.488       7.338       7.196    
        7.011       6.716       6.338       5.918       5.482       5.018       4.559       4.177       3.678       3.134    
        2.688       2.262       1.789       1.393       1.149      0.9420      0.7783      0.6598      0.4429       0.000    
   2    10.00       9.956       9.900       9.830       9.760       9.692       9.619       9.524       9.424       9.351    
        9.291       9.233       9.174       9.091       8.965       8.827       8.689       8.575       8.513       8.436    
        8.352       8.303       8.251       8.173       8.047       7.855       7.655       7.496       7.344       7.206    
        7.000       6.691       6.294       5.815       5.350       4.902       4.504       4.134       3.626       3.101    
        2.653       2.174       1.743       1.432       1.203       1.025      0.8226      0.6422      0.3583       0.000    
   3    10.00       9.950       9.894       9.832       9.771       9.701       9.608       9.508       9.437       9.371    
        9.304       9.251       9.200       9.119       8.990       8.820       8.669       8.577       8.505       8.426    
        8.358       8.306       8.252       8.148       8.011       7.840       7.666       7.541       7.364       7.184    
        6.925       6.558       6.104       5.640       5.228       4.810       4.421       4.024       3.496       3.009    
        2.626       2.185       1.791       1.507       1.280       1.096      0.8558      0.5739      0.2602       0.000    
   4    10.00       9.950       9.895       9.834       9.765       9.685       9.589       9.512       9.451       9.383    
        9.324       9.280       9.223       9.131       9.006       8.825       8.668       8.581       8.500       8.430    
        8.357       8.292       8.223       8.114       7.978       7.825       7.667       7.513       7.356       7.151    
        6.826       6.339       5.856       5.504       5.162       4.731       4.264       3.798       3.377       3.010    
        2.652       2.244       1.874       1.617       1.362       1.128      0.8314      0.5162      0.2473       0.000    
   5    10.00       9.946       9.891       9.823       9.753       9.678       9.592       9.525       9.462       9.399    
        9.348       9.304       9.229       9.121       8.984       8.819       8.685       8.590       8.510       8.415    
        8.327       8.258       8.173       8.067       7.945       7.788       7.631       7.488       7.330       7.080    
        6.612       6.066       5.679       5.404       5.066       4.601       4.118       3.696       3.382       3.051    
        2.700       2.325       1.959       1.721       1.447       1.111      0.7567      0.4603      0.2315       0.000    
   6    10.00       9.939       9.874       9.816       9.753       9.671       9.598       9.541       9.475       9.415    
        9.367       9.314       9.219       9.098       8.977       8.839       8.704       8.594       8.488       8.378    
        8.290       8.207       8.134       8.038       7.882       7.728       7.601       7.456       7.236       6.856    
        6.338       5.842       5.521       5.284       4.978       4.518       4.039       3.685       3.420       3.121    
        2.802       2.473       2.099       1.781       1.418       1.048      0.6683      0.3972      0.2187       0.000    
   7    10.00       9.927       9.863       9.810       9.744       9.677       9.611       9.557       9.496       9.437    
        9.378       9.298       9.194       9.080       8.965       8.857       8.715       8.565       8.443       8.334    
        8.242       8.162       8.099       7.977       7.818       7.688       7.559       7.363       7.007       6.520    
        6.026       5.625       5.408       5.197       4.843       4.412       4.090       3.749       3.461       3.267    
        2.965       2.614       2.175       1.721       1.315      0.9097      0.5757      0.4000      0.2060       0.000    
   8    10.00       9.926       9.869       9.808       9.742       9.682       9.625       9.570       9.514       9.458    
        9.379       9.277       9.174       9.066       8.960       8.838       8.661       8.503       8.403       8.298    
        8.195       8.126       8.032       7.901       7.762       7.625       7.408       7.103       6.652       6.225    
        5.856       5.548       5.350       5.109       4.730       4.375       4.085       3.834       3.612       3.390    
        3.097       2.655       2.117       1.633       1.210      0.8516      0.6094      0.3918      0.1879       0.000    
   9    10.00       9.938       9.868       9.802       9.753       9.703       9.646       9.588       9.525       9.465    
        9.374       9.258       9.146       9.037       8.924       8.779       8.608       8.462       8.354       8.246    
        8.154       8.066       7.938       7.813       7.684       7.515       7.200       6.790       6.368       6.056    
        5.753       5.500       5.283       4.982       4.631       4.335       4.116       3.932       3.734       3.491    
        3.140       2.659       2.110       1.630       1.219      0.8703      0.6148      0.3953      0.2021       0.000    
  10    10.00       9.935       9.862       9.808       9.762       9.714       9.662       9.612       9.540       9.450    
        9.340       9.218       9.111       9.010       8.893       8.714       8.533       8.407       8.307       8.206    
        8.120       7.998       7.855       7.714       7.563       7.317       6.913       6.488       6.129       5.879    
        5.685       5.471       5.208       4.903       4.578       4.330       4.164       4.005       3.792       3.513    
        3.112       2.613       2.113       1.703       1.319      0.9576      0.6341      0.4198      0.2256       0.000    
  11    10.00       9.922       9.862       9.818       9.773       9.731       9.684       9.614       9.515       9.414    
        9.304       9.185       9.085       8.963       8.803       8.633       8.484       8.371       8.280       8.178    
        8.048       7.892       7.700       7.538       7.284       6.941       6.596       6.283       5.983       5.798    
        5.648       5.376       5.089       4.837       4.589       4.399       4.227       4.025       3.762       3.426    
        3.049       2.665       2.185       1.782       1.417       1.059      0.7124      0.4123      0.1729       0.000    
  12    10.00       9.924       9.869       9.822       9.784       9.741       9.686       9.588       9.474       9.377    
        9.274       9.150       9.028       8.883       8.743       8.585       8.442       8.344       8.243       8.102    
        7.886       7.653       7.426       7.199       6.860       6.601       6.406       6.101       5.853       5.713    
        5.543       5.291       5.054       4.821       4.643       4.463       4.247       4.000       3.683       3.346    
        3.028       2.681       2.219       1.824       1.481       1.106      0.7494      0.3889      0.1291       0.000    
  13    10.00       9.939       9.887       9.837       9.791       9.740       9.653       9.541       9.433       9.334    
        9.218       9.097       8.971       8.819       8.664       8.516       8.411       8.290       8.156       7.878    
        7.553       7.305       7.054       6.752       6.493       6.368       6.148       5.880       5.744       5.616    
        5.415       5.198       5.012       4.839       4.687       4.520       4.264       3.932       3.627       3.311    
        3.008       2.651       2.156       1.789       1.494       1.096      0.6886      0.3356      0.1027       0.000    
  14    10.00       9.953       9.908       9.855       9.792       9.708       9.595       9.483       9.385       9.276    
        9.157       9.044       8.900       8.741       8.604       8.476       8.317       8.160       7.894       7.479    
        7.166       6.926       6.593       6.357       6.235       6.122       5.906       5.740       5.609       5.477    
        5.303       5.147       5.015       4.866       4.702       4.537       4.249       3.890       3.577       3.252    
        2.943       2.499       2.029       1.741       1.407       1.049      0.6890      0.3105      8.8450E-02   0.000    
  15    10.00       9.962       9.916       9.857       9.782       9.659       9.522       9.423       9.332       9.224    
        9.131       9.014       8.830       8.649       8.522       8.323       8.121       7.955       7.548       7.095    
        6.813       6.493       6.212       6.123       6.058       5.917       5.733       5.578       5.477       5.374    
        5.241       5.128       5.020       4.889       4.729       4.529       4.195       3.798       3.470       3.176    
        2.846       2.399       2.030       1.671       1.274      0.9595      0.6153      0.2845      9.6269E-02   0.000    
  16    10.00       9.969       9.919       9.846       9.736       9.590       9.468       9.389       9.308       9.200    
        9.087       8.915       8.687       8.511       8.329       8.099       7.964       7.629       7.057       6.661    
        6.412       6.138       6.037       5.985       5.868       5.685       5.542       5.464       5.415       5.326    
        5.215       5.112       5.021       4.890       4.698       4.430       4.050       3.710       3.453       3.144    
        2.762       2.324       1.928       1.538       1.198      0.8494      0.5517      0.2872      0.1025       0.000    
  17    10.00       9.964       9.904       9.807       9.683       9.532       9.423       9.355       9.258       9.144    
        8.943       8.702       8.510       8.331       8.096       7.867       7.583       7.049       6.572       6.325    
        6.129       5.984       5.913       5.792       5.611       5.481       5.439       5.414       5.365       5.276    
        5.179       5.089       4.993       4.862       4.588       4.239       3.947       3.728       3.481       3.110    
        2.628       2.201       1.834       1.468       1.073      0.7083      0.4700      0.2607      0.1086       0.000    
  18    10.00       9.949       9.872       9.760       9.597       9.469       9.393       9.291       9.174       9.002    
        8.748       8.546       8.366       8.093       7.787       7.470       7.072       6.607       6.315       6.126    
        5.977       5.851       5.737       5.574       5.449       5.408       5.391       5.366       5.304       5.219    
        5.137       5.047       4.926       4.724       4.444       4.164       3.938       3.759       3.449       2.995    
        2.532       2.086       1.717       1.374      0.9957      0.6531      0.3972      0.2178      0.1017       0.000    
  19    10.00       9.932       9.844       9.680       9.517       9.443       9.347       9.214       9.072       8.877    
        8.650       8.451       8.162       7.774       7.454       7.142       6.715       6.337       6.152       6.028    
        5.872       5.712       5.583       5.446       5.379       5.359       5.336       5.291       5.219       5.147    
        5.068       4.970       4.812       4.607       4.381       4.146       3.953       3.726       3.286       2.839    
        2.474       2.019       1.620       1.286      0.9145      0.5884      0.3574      0.2067      0.1035       0.000    
  20    10.00       9.913       9.777       9.607       9.487       9.402       9.295       9.153       8.984       8.802    
        8.566       8.269       7.877       7.520       7.237       6.864       6.476       6.283       6.126       5.958    
        5.789       5.621       5.463       5.362       5.317       5.279       5.228       5.182       5.113       5.049    
        4.974       4.876       4.720       4.542       4.341       4.143       3.940       3.586       3.127       2.748    
        2.344       1.903       1.549       1.215      0.8694      0.5287      0.3104      0.2085      0.1053       0.000    
  21    10.00       9.862       9.722       9.583       9.458       9.362       9.245       9.064       8.892       8.716    
        8.408       8.034       7.666       7.372       7.067       6.710       6.433       6.264       6.085       5.901    
        5.695       5.504       5.365       5.262       5.185       5.118       5.076       5.035       4.964       4.916    
        4.864       4.764       4.632       4.481       4.304       4.115       3.829       3.473       3.076       2.627    
        2.221       1.807       1.501       1.195      0.7556      0.4465      0.3180      0.2321      0.1115       0.000    
  22    10.00       9.842       9.677       9.541       9.435       9.320       9.148       8.967       8.814       8.581    
        8.256       7.865       7.547       7.303       6.969       6.639       6.405       6.231       6.054       5.832    
        5.594       5.402       5.222       5.063       4.960       4.911       4.879       4.824       4.801       4.773    
        4.733       4.657       4.559       4.421       4.258       4.076       3.779       3.424       2.958       2.516    
        2.165       1.790       1.450      0.9963      0.6220      0.4475      0.3364      0.2237      8.8849E-02   0.000    
  23    10.00       9.806       9.645       9.533       9.416       9.245       9.051       8.909       8.715       8.472    
        8.141       7.793       7.547       7.239       6.879       6.592       6.394       6.235       6.034       5.768    
        5.515       5.288       5.050       4.767       4.515       4.467       4.541       4.577       4.624       4.639    
        4.622       4.571       4.487       4.376       4.220       4.031       3.755       3.314       2.823       2.459    
        2.123       1.696       1.208      0.8139      0.6066      0.4591      0.3358      0.2130      9.9191E-02   0.000    
  24    10.00       9.779       9.662       9.533       9.368       9.180       9.026       8.872       8.681       8.401    
        8.096       7.826       7.556       7.185       6.805       6.577       6.414       6.248       6.006       5.738    
        5.486       5.226       4.862       4.211       3.230       3.562       4.012       4.295       4.446       4.506    
        4.521       4.489       4.430       4.317       4.167       3.976       3.633       3.168       2.752       2.366    
        1.956       1.504       1.071      0.7764      0.6034      0.4563      0.3280      0.2485      0.1368       0.000    
  25    10.00       9.807       9.684       9.527       9.355       9.186       9.029       8.882       8.649       8.370    
        8.114       7.854       7.524       7.117       6.822       6.615       6.433       6.238       6.013       5.764    
        5.492       5.233       4.569       3.182      3.3789E-02   2.591       3.558       4.043       4.298       4.413    
        4.444       4.429       4.370       4.238       4.080       3.846       3.491       3.043       2.667       2.249    
        1.777       1.350      0.9972      0.7681      0.6276      0.4906      0.3585      0.2642      0.1724       0.000    
  26    10.00       9.835       9.719       9.550       9.372       9.224       9.062       8.877       8.638       8.421    
        8.201       7.856       7.440       7.093       6.878       6.692       6.475       6.222       5.983       5.770    
        5.561       5.276       4.665       3.659       2.601       3.121       3.682       4.034       4.251       4.373    
        4.400       4.382       4.304       4.175       4.022       3.768       3.303       2.890       2.572       2.061    
        1.547       1.194      0.9868      0.8330      0.6837      0.5319      0.3943      0.2888      0.1725       0.000    
  27    10.00       9.871       9.730       9.586       9.428       9.257       9.095       8.916       8.704       8.497    
        8.203       7.796       7.435       7.154       6.965       6.755       6.472       6.194       5.999       5.830    
        5.655       5.361       4.903       4.349       3.760       3.780       3.978       4.163       4.301       4.371    
        4.380       4.352       4.276       4.144       3.937       3.538       3.098       2.772       2.281       1.778    
        1.409       1.179       1.028      0.8978      0.7602      0.5852      0.4214      0.3154      0.2120       0.000    
  28    10.00       9.883       9.763       9.626       9.482       9.321       9.154       8.974       8.774       8.536    
        8.176       7.808       7.495       7.225       7.029       6.818       6.576       6.303       6.045       5.877    
        5.721       5.511       5.206       4.792       4.421       4.254       4.265       4.349       4.382       4.401    
        4.382       4.338       4.245       4.059       3.749       3.330       2.954       2.507       2.020       1.685    
        1.417       1.227       1.077      0.9484      0.8070      0.6395      0.4774      0.3587      0.2187       0.000    
  29    10.00       9.888       9.775       9.672       9.534       9.386       9.226       9.046       8.835       8.516    
        8.163       7.841       7.546       7.322       7.098       6.869       6.648       6.430       6.181       5.964    
        5.796       5.619       5.409       5.156       4.818       4.636       4.567       4.535       4.513       4.463    
        4.398       4.306       4.185       3.929       3.555       3.175       2.780       2.327       1.956       1.712    
        1.493       1.283       1.120      0.9943      0.8564      0.6848      0.5178      0.3791      0.2210       0.000    
  30    10.00       9.898       9.804       9.714       9.594       9.458       9.316       9.117       8.854       8.530    
        8.167       7.840       7.593       7.373       7.152       6.931       6.746       6.559       6.335       6.102    
        5.902       5.740       5.558       5.375       5.158       4.960       4.877       4.748       4.665       4.544    
        4.404       4.246       4.067       3.793       3.484       3.121       2.712       2.294       2.021       1.796    
        1.547       1.342       1.185       1.034      0.8791      0.7270      0.5518      0.3951      0.2388       0.000    
  31    10.00       9.915       9.834       9.750       9.663       9.556       9.402       9.168       8.864       8.528    
        8.179       7.875       7.641       7.416       7.220       7.015       6.822       6.679       6.464       6.240    
        6.049       5.879       5.719       5.550       5.407       5.250       5.095       4.946       4.782       4.606    
        4.392       4.181       3.991       3.768       3.459       3.079       2.687       2.341       2.120       1.918    
        1.659       1.422       1.238       1.079      0.9246      0.7635      0.5877      0.4223      0.2325       0.000    
  32    10.00       9.929       9.867       9.793       9.709       9.613       9.460       9.196       8.912       8.606    
        8.238       7.924       7.690       7.480       7.281       7.110       6.939       6.760       6.585       6.373    
        6.170       5.986       5.828       5.669       5.539       5.429       5.257       5.075       4.855       4.616    
        4.387       4.177       3.972       3.755       3.459       3.115       2.785       2.482       2.244       2.017    
        1.776       1.528       1.332       1.145      0.9681      0.8222      0.6420      0.4231      0.2102       0.000    
  33    10.00       9.939       9.888       9.829       9.747       9.638       9.445       9.190       8.952       8.671    
        8.314       8.003       7.762       7.533       7.349       7.203       7.052       6.874       6.680       6.485    
        6.274       6.076       5.890       5.736       5.631       5.521       5.345       5.116       4.887       4.660    
        4.434       4.239       4.030       3.755       3.474       3.161       2.879       2.634       2.386       2.138    
        1.913       1.677       1.461       1.265       1.067      0.8938      0.6913      0.4328      0.2039       0.000    
  34    10.00       9.945       9.911       9.860       9.759       9.610       9.424       9.235       8.992       8.688    
        8.375       8.072       7.816       7.588       7.423       7.306       7.147       6.968       6.757       6.572    
        6.379       6.146       5.960       5.818       5.711       5.576       5.371       5.166       4.930       4.680    
        4.490       4.315       4.124       3.852       3.560       3.273       3.012       2.791       2.536       2.285    
        2.068       1.851       1.621       1.421       1.211       1.007      0.7482      0.4807      0.2535       0.000    
  35    10.00       9.954       9.916       9.851       9.727       9.570       9.434       9.274       9.052       8.725    
        8.393       8.114       7.856       7.659       7.518       7.388       7.223       7.025       6.822       6.616    
        6.433       6.226       6.036       5.901       5.784       5.652       5.434       5.186       4.935       4.698    
        4.554       4.388       4.182       3.973       3.722       3.415       3.149       2.969       2.709       2.426    
        2.222       2.004       1.784       1.587       1.352       1.124      0.8634      0.5764      0.2880       0.000    
  36    10.00       9.952       9.897       9.825       9.701       9.552       9.431       9.282       9.060       8.756    
        8.411       8.109       7.915       7.758       7.625       7.466       7.268       7.075       6.859       6.604    
        6.410       6.245       6.082       5.965       5.851       5.692       5.460       5.202       4.945       4.728    
        4.586       4.445       4.252       4.053       3.837       3.557       3.289       3.089       2.860       2.554    
        2.324       2.104       1.880       1.717       1.490       1.237      0.9766      0.6766      0.3441       0.000    
  37    10.00       9.937       9.877       9.798       9.674       9.538       9.401       9.258       9.055       8.728    
        8.380       8.131       8.010       7.861       7.687       7.528       7.304       7.070       6.805       6.551    
        6.400       6.269       6.116       5.994       5.862       5.672       5.456       5.188       4.959       4.794    
        4.644       4.488       4.289       4.114       3.888       3.620       3.407       3.213       2.958       2.653    
        2.378       2.162       1.984       1.801       1.586       1.350       1.100      0.7639      0.4139       0.000    
  38    10.00       9.930       9.853       9.769       9.654       9.521       9.370       9.221       9.005       8.703    
        8.436       8.236       8.082       7.948       7.754       7.511       7.257       6.978       6.693       6.529    
        6.411       6.252       6.107       6.002       5.859       5.653       5.392       5.150       5.013       4.878    
        4.712       4.534       4.342       4.162       3.940       3.692       3.501       3.302       2.998       2.679    
        2.440       2.240       2.058       1.875       1.684       1.456       1.198      0.8742      0.4536       0.000    
  39    10.00       9.911       9.833       9.750       9.637       9.489       9.327       9.169       8.972       8.729    
        8.520       8.371       8.199       8.008       7.729       7.415       7.102       6.804       6.631       6.524    
        6.366       6.198       6.092       5.994       5.860       5.623       5.361       5.198       5.075       4.934    
        4.757       4.586       4.390       4.196       4.007       3.801       3.579       3.348       3.034       2.719    
        2.468       2.267       2.125       1.979       1.771       1.539       1.278      0.9264      0.4537       0.000    
  40    10.00       9.897       9.821       9.737       9.623       9.468       9.301       9.142       8.975       8.773    
        8.601       8.472       8.261       7.957       7.603       7.253       6.936       6.731       6.616       6.489    
        6.316       6.170       6.075       5.959       5.803       5.611       5.435       5.269       5.123       4.990    
        4.827       4.634       4.434       4.251       4.075       3.866       3.627       3.394       3.053       2.708    
        2.481       2.313       2.166       2.040       1.830       1.571       1.332      0.9625      0.4753       0.000    
  41    10.00       9.904       9.815       9.722       9.597       9.456       9.310       9.167       9.007       8.827    
        8.664       8.508       8.223       7.838       7.447       7.130       6.881       6.707       6.589       6.444    
        6.269       6.145       6.040       5.917       5.779       5.639       5.508       5.349       5.174       5.021    
        4.873       4.689       4.486       4.318       4.134       3.929       3.685       3.360       2.982       2.717    
        2.531       2.357       2.221       2.063       1.841       1.584       1.373       1.021      0.5232       0.000    
  42    10.00       9.908       9.808       9.723       9.613       9.482       9.336       9.177       9.034       8.895    
        8.701       8.422       8.066       7.668       7.317       7.073       6.858       6.694       6.557       6.385    
        6.224       6.109       6.002       5.913       5.795       5.692       5.569       5.388       5.202       5.064    
        4.932       4.733       4.515       4.357       4.200       3.969       3.655       3.267       2.930       2.728    
        2.580       2.432       2.264       2.058       1.828       1.621       1.407       1.064      0.5474       0.000    
  43    10.00       9.909       9.817       9.730       9.643       9.526       9.381       9.224       9.068       8.870    
        8.592       8.272       7.907       7.525       7.253       7.048       6.845       6.675       6.510       6.339    
        6.189       6.081       6.002       5.932       5.829       5.716       5.597       5.420       5.253       5.139    
        4.973       4.753       4.548       4.392       4.211       3.930       3.561       3.186       2.952       2.792    
        2.635       2.475       2.269       2.047       1.837       1.637       1.445       1.060      0.4778       0.000    
  44    10.00       9.903       9.820       9.744       9.648       9.559       9.435       9.245       9.035       8.761    
        8.480       8.143       7.744       7.466       7.256       7.030       6.809       6.616       6.437       6.285    
        6.178       6.091       6.017       5.945       5.855       5.741       5.600       5.460       5.331       5.187    
        5.028       4.829       4.597       4.377       4.164       3.877       3.492       3.168       2.980       2.825    
        2.675       2.498       2.292       2.094       1.874       1.652       1.402      0.9081      0.4014       0.000    
  45    10.00       9.903       9.834       9.747       9.657       9.577       9.397       9.181       8.934       8.664    
        8.427       8.024       7.654       7.446       7.232       6.985       6.736       6.538       6.381       6.272    
        6.195       6.118       6.040       5.954       5.858       5.753       5.636       5.516       5.410       5.263    
        5.072       4.860       4.625       4.359       4.117       3.805       3.443       3.187       3.033       2.878    
        2.682       2.479       2.298       2.119       1.926       1.688       1.264      0.7613      0.3856       0.000    
  46    10.00       9.920       9.846       9.754       9.655       9.504       9.315       9.135       8.910       8.646    
        8.305       7.934       7.637       7.378       7.158       6.915       6.667       6.513       6.395       6.294    
        6.223       6.152       6.059       5.956       5.862       5.768       5.672       5.567       5.460       5.325    
        5.147       4.926       4.665       4.364       4.027       3.691       3.428       3.253       3.081       2.903    
        2.678       2.465       2.285       2.141       1.935       1.602       1.134      0.7172      0.3644       0.000    
  47    10.00       9.937       9.870       9.773       9.602       9.420       9.258       9.104       8.903       8.573    
        8.205       7.861       7.575       7.357       7.122       6.853       6.639       6.502       6.408       6.325    
        6.249       6.167       6.076       5.974       5.880       5.799       5.714       5.609       5.487       5.353    
        5.196       4.999       4.663       4.264       3.948       3.700       3.470       3.321       3.163       2.915    
        2.647       2.423       2.255       2.139       1.879       1.482       1.052      0.6902      0.3542       0.000    
  48    10.00       9.945       9.873       9.729       9.555       9.405       9.232       9.077       8.862       8.515    
        8.114       7.802       7.570       7.310       7.037       6.796       6.635       6.501       6.411       6.350    
        6.273       6.175       6.074       5.986       5.911       5.842       5.761       5.645       5.500       5.345    
        5.182       4.957       4.609       4.282       4.004       3.758       3.543       3.374       3.170       2.873    
        2.590       2.410       2.270       2.050       1.704       1.349       1.005      0.6951      0.3740       0.000    
  49    10.00       9.942       9.839       9.710       9.569       9.393       9.219       9.045       8.779       8.411    
        8.066       7.774       7.494       7.248       7.038       6.811       6.603       6.482       6.422       6.363    
        6.292       6.181       6.069       5.996       5.933       5.880       5.788       5.648       5.484       5.335    
        5.165       4.890       4.595       4.376       4.122       3.834       3.574       3.368       3.133       2.816    
        2.588       2.430       2.221       1.891       1.583       1.293      0.9936      0.6951      0.3728       0.000    
  50    10.00       9.935       9.828       9.696       9.567       9.404       9.209       8.992       8.711       8.421    
        8.060       7.694       7.435       7.238       7.061       6.804       6.575       6.484       6.431       6.371    
        6.300       6.185       6.071       6.000       5.947       5.897       5.794       5.634       5.468       5.326    
        5.151       4.868       4.640       4.443       4.177       3.891       3.619       3.338       3.017       2.751    
        2.633       2.455       2.132       1.801       1.571       1.290       1.007      0.6808      0.3035       0.000    

 HEAD WILL BE SAVED ON UNIT   51 AT END OF TIME STEP  55, STRESS PERIOD    2

 DRAWDOWN WILL BE SAVED ON UNIT   52 AT END OF TIME STEP  55, STRESS PERIOD    2
1
  VOLUMETRIC BUDGET FOR ENTIRE MODEL AT END OF TIME STEP 55 IN STRESS PERIOD   2
  ------------------------------------------------------------------------------

     CUMULATIVE VOLUMES      L**3       RATES FOR THIS TIME STEP      L**3/T
     ------------------                 ------------------------

           IN:                                      IN:
           ---                                      ---
             STORAGE =       26809.3770               STORAGE =         454.2938
       CONSTANT HEAD =       34047.6953         CONSTANT HEAD =         636.1260
               WELLS =           0.0000                 WELLS =           0.0000

            TOTAL IN =       60857.0703              TOTAL IN =        1090.4198

          OUT:                                     OUT:
          ----                                     ----
             STORAGE =       9.4320E-03               STORAGE =           0.0000
       CONSTANT HEAD =       33357.0547         CONSTANT HEAD =         590.4196
               WELLS =       27500.0000                 WELLS =         500.0000

           TOTAL OUT =       60857.0625             TOTAL OUT =        1090.4196

            IN - OUT =       7.8125E-03              IN - OUT =       2.4414E-04

 PERCENT DISCREPANCY =           0.00     PERCENT DISCREPANCY =           0.00






          TIME SUMMARY AT END OF TIME STEP  55 IN STRESS PERIOD    2
                    SECONDS     MINUTES      HOURS       DAYS        YEARS
                    -----------------------------------------------------------
   TIME STEP LENGTH  86400.      1440.0      24.000      1.0000     2.73785E-03
 STRESS PERIOD TIME 4.75200E+06  79200.      1320.0      55.000     0.15058    
         TOTAL TIME 4.83840E+06  80640.      1344.0      56.000     0.15332    
1
 
 SOLVING FOR HEAD 

 OUTPUT CONTROL FOR STRESS PERIOD    2   TIME STEP  56
    SAVE HEAD FOR ALL LAYERS
    SAVE DRAWDOWN FOR ALL LAYERS
    SAVE BUDGET
    PRINT HEAD FOR ALL LAYERS
    PRINT BUDGET
 UBDSV1 SAVING "         STORAGE" ON UNIT  53 AT TIME STEP 56, STRESS PERIOD   2
 UBDSV2 SAVING "   CONSTANT HEAD" ON UNIT  53 AT TIME STEP 56, STRESS PERIOD   2
 UBDSV1 SAVING "FLOW RIGHT FACE " ON UNIT  53 AT TIME STEP 56, STRESS PERIOD   2
 UBDSV1 SAVING "FLOW FRONT FACE " ON UNIT  53 AT TIME STEP 56, STRESS PERIOD   2
1
              HEAD IN LAYER   1 AT END OF TIME STEP  56 IN STRESS PERIOD    2
  ---------------------------------------------------------------------------

            1           2           3           4           5           6           7           8           9          10
           11          12          13          14          15          16          17          18          19          20
           21          22          23          24          25          26          27          28          29          30
           31          32          33          34          35          36          37          38          39          40
           41          42          43          44          45          46          47          48          49          50
 ........................................................................................................................
   1    10.00       9.957       9.895       9.825       9.757       9.679       9.605       9.533       9.442       9.352    
        9.282       9.214       9.145       9.077       8.967       8.835       8.688       8.572       8.512       8.442    
        8.360       8.294       8.229       8.154       8.055       7.859       7.639       7.484       7.334       7.192    
        7.008       6.712       6.334       5.914       5.479       5.015       4.557       4.174       3.676       3.132    
        2.687       2.260       1.788       1.392       1.148      0.9414      0.7778      0.6594      0.4426       0.000    
   2    10.00       9.956       9.900       9.829       9.760       9.691       9.618       9.523       9.423       9.349    
        9.289       9.231       9.173       9.089       8.963       8.825       8.686       8.571       8.510       8.432    
        8.349       8.299       8.247       8.169       8.043       7.851       7.651       7.492       7.340       7.202    
        6.996       6.687       6.290       5.812       5.347       4.899       4.501       4.132       3.624       3.099    
        2.652       2.173       1.742       1.431       1.202       1.025      0.8221      0.6418      0.3581       0.000    
   3    10.00       9.950       9.894       9.831       9.770       9.701       9.607       9.506       9.436       9.369    
        9.302       9.249       9.198       9.116       8.988       8.818       8.666       8.574       8.501       8.422    
        8.355       8.303       8.248       8.144       8.007       7.836       7.662       7.537       7.360       7.180    
        6.921       6.554       6.100       5.636       5.224       4.807       4.418       4.021       3.494       3.007    
        2.624       2.184       1.790       1.506       1.279       1.095      0.8552      0.5735      0.2601       0.000    
   4    10.00       9.950       9.895       9.834       9.765       9.684       9.588       9.511       9.450       9.381    
        9.322       9.278       9.221       9.129       9.004       8.822       8.665       8.578       8.497       8.426    
        8.353       8.288       8.220       8.110       7.974       7.821       7.663       7.509       7.351       7.147    
        6.821       6.335       5.852       5.500       5.159       4.728       4.261       3.795       3.374       3.008    
        2.650       2.242       1.872       1.616       1.361       1.128      0.8308      0.5158      0.2471       0.000    
   5    10.00       9.946       9.891       9.822       9.752       9.677       9.591       9.524       9.461       9.397    
        9.346       9.302       9.227       9.119       8.981       8.816       8.682       8.587       8.507       8.411    
        8.324       8.254       8.170       8.063       7.941       7.784       7.626       7.484       7.326       7.076    
        6.607       6.061       5.675       5.399       5.062       4.597       4.115       3.693       3.379       3.048    
        2.698       2.323       1.958       1.720       1.446       1.110      0.7562      0.4599      0.2314       0.000    
   6    10.00       9.939       9.873       9.816       9.752       9.670       9.597       9.540       9.474       9.413    
        9.365       9.312       9.217       9.096       8.975       8.836       8.701       8.591       8.485       8.374    
        8.286       8.203       8.130       8.034       7.878       7.723       7.596       7.452       7.231       6.851    
        6.333       5.837       5.516       5.279       4.973       4.514       4.035       3.682       3.417       3.118    
        2.800       2.471       2.098       1.780       1.417       1.047      0.6678      0.3969      0.2185       0.000    
   7    10.00       9.927       9.863       9.810       9.744       9.676       9.610       9.556       9.495       9.436    
        9.376       9.296       9.192       9.078       8.963       8.854       8.712       8.562       8.439       8.330    
        8.238       8.158       8.095       7.973       7.814       7.683       7.554       7.358       7.002       6.514    
        6.020       5.619       5.403       5.192       4.837       4.407       4.086       3.745       3.457       3.264    
        2.963       2.611       2.173       1.719       1.314      0.9090      0.5753      0.3997      0.2058       0.000    
   8    10.00       9.926       9.869       9.808       9.742       9.681       9.624       9.569       9.513       9.456    
        9.378       9.276       9.172       9.064       8.958       8.835       8.657       8.499       8.399       8.294    
        8.190       8.122       8.027       7.896       7.757       7.620       7.402       7.097       6.646       6.218    
        5.849       5.542       5.344       5.103       4.724       4.370       4.081       3.830       3.608       3.387    
        3.094       2.653       2.115       1.631       1.209      0.8509      0.6089      0.3915      0.1877       0.000    
   9    10.00       9.938       9.868       9.801       9.752       9.702       9.645       9.587       9.524       9.463    
        9.372       9.256       9.143       9.035       8.921       8.776       8.604       8.458       8.349       8.242    
        8.150       8.062       7.933       7.808       7.678       7.509       7.194       6.783       6.361       6.049    
        5.746       5.494       5.276       4.976       4.626       4.329       4.111       3.927       3.730       3.487    
        3.137       2.656       2.108       1.628       1.218      0.8696      0.6143      0.3949      0.2020       0.000    
  10    10.00       9.935       9.862       9.807       9.762       9.713       9.661       9.611       9.539       9.449    
        9.338       9.216       9.108       9.007       8.889       8.710       8.529       8.402       8.302       8.202    
        8.115       7.992       7.850       7.708       7.557       7.311       6.906       6.480       6.122       5.871    
        5.677       5.464       5.201       4.896       4.571       4.324       4.159       4.000       3.787       3.509    
        3.108       2.611       2.111       1.702       1.318      0.9567      0.6335      0.4194      0.2254       0.000    
  11    10.00       9.921       9.862       9.817       9.772       9.730       9.683       9.613       9.514       9.412    
        9.302       9.182       9.082       8.960       8.800       8.629       8.479       8.367       8.275       8.173    
        8.043       7.886       7.693       7.531       7.277       6.933       6.588       6.275       5.975       5.789    
        5.640       5.368       5.081       4.830       4.582       4.393       4.222       4.019       3.757       3.422    
        3.045       2.662       2.183       1.781       1.416       1.058      0.7117      0.4120      0.1728       0.000    
  12    10.00       9.924       9.869       9.821       9.783       9.740       9.685       9.587       9.472       9.375    
        9.272       9.147       9.025       8.880       8.739       8.581       8.437       8.340       8.238       8.096    
        7.880       7.646       7.419       7.191       6.852       6.592       6.396       6.091       5.843       5.704    
        5.534       5.282       5.046       4.814       4.636       4.456       4.241       3.995       3.677       3.342    
        3.024       2.678       2.217       1.822       1.479       1.105      0.7487      0.3885      0.1289       0.000    
  13    10.00       9.939       9.886       9.836       9.791       9.739       9.652       9.540       9.431       9.332    
        9.216       9.094       8.967       8.815       8.660       8.512       8.406       8.285       8.151       7.871    
        7.545       7.297       7.045       6.743       6.482       6.357       6.138       5.869       5.734       5.606    
        5.406       5.189       5.003       4.831       4.679       4.512       4.257       3.926       3.622       3.307    
        3.004       2.647       2.153       1.787       1.492       1.095      0.6879      0.3353      0.1026       0.000    
  14    10.00       9.952       9.908       9.854       9.792       9.707       9.594       9.481       9.383       9.274    
        9.154       9.040       8.897       8.737       8.599       8.471       8.311       8.154       7.887       7.471    
        7.157       6.917       6.583       6.345       6.224       6.111       5.895       5.728       5.598       5.466    
        5.292       5.136       5.005       4.857       4.694       4.529       4.242       3.883       3.571       3.247    
        2.939       2.496       2.027       1.739       1.405       1.048      0.6882      0.3102      8.8358E-02   0.000    
  15    10.00       9.962       9.915       9.856       9.781       9.658       9.520       9.421       9.329       9.221    
        9.128       9.010       8.826       8.644       8.517       8.317       8.114       7.948       7.540       7.086    
        6.802       6.482       6.199       6.111       6.046       5.904       5.720       5.565       5.465       5.362    
        5.230       5.117       5.009       4.879       4.720       4.521       4.187       3.792       3.464       3.171    
        2.841       2.396       2.027       1.669       1.273      0.9584      0.6146      0.2842      9.6161E-02   0.000    
  16    10.00       9.969       9.918       9.845       9.735       9.589       9.466       9.387       9.306       9.197    
        9.084       8.911       8.681       8.505       8.323       8.092       7.956       7.620       7.047       6.649    
        6.400       6.125       6.024       5.973       5.855       5.672       5.529       5.451       5.402       5.314    
        5.204       5.101       5.010       4.880       4.688       4.421       4.042       3.703       3.447       3.139    
        2.758       2.321       1.926       1.536       1.196      0.8483      0.5510      0.2869      0.1024       0.000    
  17    10.00       9.964       9.904       9.806       9.681       9.530       9.421       9.352       9.256       9.141    
        8.939       8.697       8.504       8.324       8.089       7.858       7.574       7.038       6.560       6.312    
        6.116       5.970       5.900       5.779       5.597       5.468       5.425       5.401       5.352       5.263    
        5.167       5.078       4.982       4.851       4.578       4.230       3.939       3.721       3.474       3.104    
        2.624       2.197       1.831       1.466       1.072      0.7074      0.4694      0.2603      0.1084       0.000    
  18    10.00       9.949       9.872       9.759       9.595       9.467       9.391       9.288       9.170       8.998    
        8.742       8.540       8.359       8.085       7.778       7.460       7.061       6.594       6.302       6.112    
        5.964       5.837       5.723       5.560       5.435       5.395       5.377       5.352       5.291       5.206    
        5.125       5.035       4.914       4.713       4.433       4.155       3.929       3.751       3.442       2.989    
        2.527       2.083       1.714       1.372      0.9943      0.6522      0.3967      0.2175      0.1015       0.000    
  19    10.00       9.932       9.843       9.679       9.515       9.441       9.344       9.210       9.068       8.872    
        8.644       8.444       8.154       7.764       7.443       7.130       6.702       6.323       6.138       6.014    
        5.858       5.698       5.569       5.432       5.365       5.345       5.322       5.277       5.205       5.133    
        5.055       4.957       4.800       4.596       4.370       4.136       3.944       3.717       3.280       2.834    
        2.469       2.016       1.618       1.284      0.9132      0.5876      0.3569      0.2064      0.1033       0.000    
  20    10.00       9.912       9.776       9.605       9.485       9.399       9.292       9.149       8.979       8.797    
        8.560       8.262       7.868       7.510       7.226       6.852       6.463       6.269       6.113       5.944    
        5.774       5.607       5.449       5.348       5.302       5.265       5.214       5.168       5.099       5.035    
        4.960       4.863       4.707       4.530       4.330       4.133       3.930       3.578       3.120       2.743    
        2.339       1.900       1.547       1.213      0.8681      0.5280      0.3100      0.2082      0.1052       0.000    
  21    10.00       9.861       9.721       9.581       9.456       9.359       9.242       9.060       8.887       8.710    
        8.401       8.025       7.655       7.361       7.055       6.697       6.419       6.250       6.071       5.887    
        5.680       5.490       5.351       5.248       5.171       5.103       5.062       5.020       4.950       4.901    
        4.850       4.750       4.619       4.469       4.292       4.104       3.820       3.465       3.069       2.622    
        2.216       1.804       1.499       1.193      0.7545      0.4459      0.3176      0.2318      0.1114       0.000    
  22    10.00       9.841       9.676       9.539       9.433       9.317       9.144       8.963       8.809       8.575    
        8.248       7.856       7.536       7.291       6.957       6.626       6.392       6.218       6.040       5.818    
        5.580       5.387       5.207       5.048       4.945       4.896       4.864       4.809       4.786       4.758    
        4.719       4.643       4.546       4.408       4.246       4.065       3.769       3.416       2.951       2.511    
        2.161       1.787       1.448      0.9948      0.6211      0.4469      0.3360      0.2235      8.8739E-02   0.000    
  23    10.00       9.805       9.644       9.531       9.414       9.242       9.047       8.904       8.709       8.465    
        8.132       7.783       7.537       7.227       6.867       6.579       6.381       6.221       6.020       5.754    
        5.500       5.273       5.035       4.751       4.500       4.452       4.526       4.561       4.609       4.624    
        4.607       4.556       4.473       4.363       4.208       4.019       3.745       3.306       2.817       2.454    
        2.119       1.693       1.206      0.8128      0.6058      0.4585      0.3354      0.2128      9.9072E-02   0.000    
  24    10.00       9.778       9.661       9.531       9.365       9.176       9.022       8.867       8.675       8.394    
        8.088       7.817       7.545       7.173       6.792       6.564       6.400       6.235       5.992       5.724    
        5.472       5.211       4.846       4.195       3.214       3.546       3.996       4.279       4.430       4.491    
        4.506       4.474       4.416       4.304       4.155       3.964       3.624       3.160       2.746       2.361    
        1.952       1.501       1.070      0.7754      0.6027      0.4557      0.3276      0.2482      0.1366       0.000    
  25    10.00       9.806       9.683       9.525       9.352       9.182       9.024       8.877       8.643       8.363    
        8.106       7.845       7.514       7.105       6.810       6.602       6.420       6.224       5.998       5.749    
        5.478       5.218       4.554       3.166      1.6381E-02   2.574       3.542       4.026       4.282       4.398    
        4.429       4.414       4.355       4.225       4.067       3.835       3.481       3.036       2.661       2.245    
        1.773       1.348      0.9959      0.7672      0.6268      0.4900      0.3581      0.2639      0.1722       0.000    
  26    10.00       9.834       9.717       9.548       9.369       9.221       9.058       8.872       8.632       8.414    
        8.193       7.846       7.429       7.081       6.866       6.679       6.462       6.208       5.969       5.756    
        5.546       5.261       4.649       3.643       2.584       3.104       3.665       4.018       4.234       4.357    
        4.384       4.367       4.290       4.162       4.010       3.757       3.294       2.883       2.566       2.057    
        1.545       1.193      0.9856      0.8321      0.6829      0.5313      0.3939      0.2885      0.1723       0.000    
  27    10.00       9.871       9.729       9.585       9.425       9.253       9.091       8.912       8.698       8.490    
        8.195       7.786       7.425       7.142       6.952       6.742       6.458       6.180       5.985       5.815    
        5.640       5.346       4.888       4.333       3.743       3.764       3.962       4.146       4.284       4.355    
        4.365       4.338       4.262       4.131       3.925       3.529       3.090       2.766       2.277       1.775    
        1.407       1.178       1.027      0.8968      0.7594      0.5846      0.4209      0.3151      0.2118       0.000    
  28    10.00       9.882       9.762       9.625       9.480       9.318       9.150       8.970       8.769       8.529    
        8.168       7.798       7.485       7.214       7.017       6.805       6.563       6.290       6.031       5.863    
        5.706       5.496       5.191       4.777       4.404       4.237       4.249       4.333       4.366       4.385    
        4.367       4.324       4.232       4.046       3.738       3.322       2.947       2.502       2.017       1.683    
        1.415       1.226       1.076      0.9474      0.8061      0.6388      0.4769      0.3584      0.2185       0.000    
  29    10.00       9.888       9.774       9.671       9.532       9.383       9.223       9.042       8.830       8.510    
        8.156       7.832       7.536       7.312       7.086       6.857       6.635       6.417       6.168       5.949    
        5.782       5.604       5.395       5.140       4.802       4.620       4.551       4.519       4.498       4.448    
        4.383       4.292       4.172       3.918       3.546       3.168       2.774       2.323       1.953       1.710    
        1.491       1.282       1.119      0.9933      0.8556      0.6841      0.5173      0.3787      0.2208       0.000    
  30    10.00       9.898       9.803       9.713       9.592       9.456       9.313       9.113       8.849       8.524    
        8.159       7.831       7.583       7.363       7.141       6.919       6.734       6.547       6.322       6.089    
        5.888       5.725       5.543       5.360       5.143       4.944       4.862       4.733       4.650       4.530    
        4.390       4.235       4.057       3.784       3.476       3.115       2.707       2.291       2.018       1.794    
        1.546       1.340       1.184       1.033      0.8782      0.7264      0.5513      0.3948      0.2386       0.000    
  31    10.00       9.915       9.834       9.749       9.662       9.555       9.400       9.164       8.860       8.522    
        8.172       7.867       7.632       7.406       7.209       7.004       6.810       6.667       6.451       6.227    
        6.035       5.865       5.705       5.535       5.393       5.236       5.080       4.932       4.768       4.593    
        4.381       4.171       3.983       3.761       3.452       3.073       2.683       2.338       2.117       1.916    
        1.657       1.421       1.237       1.078      0.9237      0.7628      0.5872      0.4219      0.2323       0.000    
  32    10.00       9.928       9.866       9.792       9.708       9.611       9.458       9.192       8.907       8.601    
        8.231       7.915       7.681       7.470       7.271       7.099       6.928       6.748       6.573       6.360    
        6.157       5.973       5.814       5.655       5.526       5.415       5.243       5.062       4.843       4.605    
        4.378       4.169       3.964       3.748       3.453       3.110       2.781       2.479       2.242       2.015    
        1.775       1.527       1.330       1.144      0.9673      0.8215      0.6415      0.4228      0.2100       0.000    
  33    10.00       9.938       9.888       9.828       9.746       9.637       9.443       9.187       8.948       8.666    
        8.308       7.995       7.754       7.524       7.340       7.193       7.041       6.863       6.669       6.473    
        6.261       6.064       5.877       5.723       5.618       5.508       5.333       5.105       4.877       4.651    
        4.426       4.231       4.023       3.749       3.469       3.157       2.875       2.631       2.384       2.135    
        1.911       1.676       1.459       1.264       1.067      0.8932      0.6908      0.4325      0.2037       0.000    
  34    10.00       9.945       9.910       9.859       9.758       9.608       9.422       9.233       8.989       8.683    
        8.369       8.065       7.808       7.579       7.414       7.297       7.137       6.957       6.746       6.561    
        6.367       6.135       5.948       5.806       5.699       5.564       5.360       5.156       4.921       4.672    
        4.483       4.308       4.118       3.847       3.556       3.269       3.009       2.789       2.534       2.283    
        2.067       1.850       1.620       1.420       1.210       1.006      0.7478      0.4805      0.2534       0.000    
  35    10.00       9.954       9.915       9.851       9.726       9.568       9.432       9.272       9.049       8.721    
        8.387       8.107       7.849       7.651       7.510       7.379       7.214       7.015       6.812       6.606    
        6.422       6.215       6.025       5.890       5.774       5.641       5.424       5.177       4.927       4.692    
        4.548       4.383       4.178       3.969       3.718       3.412       3.147       2.967       2.707       2.424    
        2.220       2.002       1.784       1.586       1.352       1.124      0.8631      0.5762      0.2879       0.000    
  36    10.00       9.951       9.897       9.824       9.700       9.551       9.429       9.280       9.057       8.752    
        8.406       8.103       7.909       7.751       7.618       7.458       7.260       7.067       6.850       6.595    
        6.401       6.236       6.073       5.956       5.842       5.683       5.452       5.195       4.939       4.723    
        4.581       4.440       4.248       4.049       3.834       3.554       3.287       3.087       2.858       2.553    
        2.323       2.103       1.879       1.716       1.490       1.236      0.9764      0.6764      0.3440       0.000    
  37    10.00       9.937       9.877       9.798       9.673       9.536       9.400       9.256       9.052       8.725    
        8.375       8.126       8.005       7.855       7.680       7.521       7.296       7.062       6.798       6.543    
        6.392       6.261       6.108       5.986       5.854       5.665       5.449       5.182       4.955       4.789    
        4.640       4.484       4.286       4.110       3.885       3.618       3.405       3.211       2.956       2.652    
        2.377       2.161       1.983       1.800       1.585       1.350       1.100      0.7637      0.4138       0.000    
  38    10.00       9.930       9.852       9.768       9.653       9.520       9.369       9.219       9.003       8.700    
        8.432       8.231       8.077       7.942       7.748       7.504       7.251       6.971       6.687       6.522    
        6.404       6.246       6.101       5.995       5.853       5.647       5.387       5.146       5.010       4.874    
        4.709       4.531       4.339       4.159       3.938       3.690       3.499       3.301       2.997       2.678    
        2.439       2.239       2.058       1.875       1.683       1.456       1.198      0.8740      0.4535       0.000    
  39    10.00       9.911       9.833       9.749       9.637       9.488       9.325       9.167       8.970       8.726    
        8.517       8.367       8.194       8.003       7.724       7.409       7.097       6.799       6.626       6.519    
        6.361       6.193       6.087       5.989       5.855       5.618       5.358       5.195       5.072       4.931    
        4.754       4.583       4.388       4.194       4.005       3.799       3.578       3.347       3.033       2.718    
        2.467       2.266       2.125       1.979       1.771       1.538       1.278      0.9262      0.4536       0.000    
  40    10.00       9.897       9.820       9.736       9.622       9.467       9.300       9.140       8.973       8.770    
        8.598       8.469       8.257       7.953       7.599       7.248       6.932       6.727       6.612       6.484    
        6.312       6.166       6.071       5.955       5.800       5.608       5.432       5.266       5.120       4.987    
        4.824       4.632       4.432       4.249       4.073       3.864       3.625       3.393       3.052       2.707    
        2.480       2.313       2.165       2.040       1.829       1.570       1.331      0.9623      0.4752       0.000    
  41    10.00       9.904       9.815       9.722       9.596       9.455       9.309       9.166       9.005       8.824    
        8.661       8.505       8.220       7.835       7.444       7.126       6.877       6.703       6.585       6.440    
        6.266       6.141       6.037       5.913       5.776       5.637       5.505       5.346       5.172       5.018    
        4.871       4.687       4.484       4.316       4.132       3.927       3.683       3.359       2.981       2.716    
        2.531       2.357       2.220       2.063       1.840       1.584       1.372       1.021      0.5231       0.000    
  42    10.00       9.907       9.808       9.722       9.613       9.481       9.335       9.176       9.033       8.894    
        8.698       8.420       8.063       7.666       7.315       7.070       6.855       6.691       6.554       6.382    
        6.221       6.106       6.000       5.911       5.793       5.690       5.567       5.385       5.200       5.062    
        4.930       4.731       4.513       4.356       4.198       3.968       3.654       3.266       2.929       2.727    
        2.580       2.431       2.263       2.058       1.827       1.621       1.407       1.064      0.5473       0.000    
  43    10.00       9.909       9.817       9.730       9.642       9.526       9.380       9.223       9.067       8.869    
        8.590       8.270       7.905       7.522       7.250       7.045       6.843       6.672       6.507       6.337    
        6.186       6.079       5.999       5.930       5.827       5.714       5.595       5.417       5.251       5.137    
        4.971       4.752       4.547       4.391       4.209       3.928       3.560       3.185       2.951       2.791    
        2.634       2.474       2.269       2.047       1.836       1.637       1.445       1.060      0.4777       0.000    
  44    10.00       9.903       9.819       9.743       9.648       9.558       9.435       9.244       9.034       8.760    
        8.478       8.141       7.742       7.465       7.254       7.028       6.807       6.614       6.435       6.283    
        6.175       6.089       6.014       5.942       5.853       5.738       5.598       5.458       5.329       5.185    
        5.026       4.827       4.596       4.376       4.163       3.876       3.491       3.167       2.979       2.825    
        2.674       2.498       2.292       2.094       1.874       1.652       1.402      0.9080      0.4013       0.000    
  45    10.00       9.903       9.834       9.747       9.657       9.577       9.397       9.180       8.933       8.663    
        8.426       8.023       7.652       7.444       7.230       6.983       6.734       6.536       6.379       6.270    
        6.193       6.116       6.038       5.951       5.856       5.751       5.633       5.514       5.408       5.262    
        5.070       4.858       4.623       4.357       4.116       3.804       3.442       3.187       3.032       2.877    
        2.682       2.478       2.297       2.118       1.926       1.688       1.264      0.7612      0.3855       0.000    
  46    10.00       9.920       9.846       9.754       9.654       9.504       9.314       9.135       8.909       8.645    
        8.304       7.933       7.636       7.376       7.157       6.914       6.665       6.511       6.393       6.292    
        6.221       6.150       6.057       5.954       5.860       5.766       5.670       5.565       5.458       5.324    
        5.145       4.924       4.663       4.363       4.026       3.690       3.427       3.252       3.080       2.902    
        2.677       2.465       2.285       2.141       1.934       1.602       1.133      0.7171      0.3643       0.000    
  47    10.00       9.937       9.870       9.773       9.601       9.419       9.257       9.104       8.902       8.572    
        8.204       7.860       7.573       7.355       7.120       6.851       6.637       6.500       6.406       6.323    
        6.247       6.165       6.074       5.972       5.878       5.797       5.712       5.607       5.485       5.352    
        5.194       4.998       4.661       4.263       3.947       3.699       3.470       3.320       3.162       2.914    
        2.646       2.423       2.255       2.138       1.879       1.482       1.052      0.6901      0.3542       0.000    
  48    10.00       9.945       9.873       9.728       9.555       9.404       9.231       9.076       8.861       8.514    
        8.113       7.800       7.569       7.309       7.035       6.794       6.633       6.499       6.409       6.348    
        6.271       6.173       6.072       5.984       5.909       5.840       5.759       5.643       5.498       5.343    
        5.180       4.955       4.607       4.281       4.003       3.757       3.543       3.373       3.169       2.872    
        2.589       2.410       2.270       2.050       1.704       1.348       1.005      0.6950      0.3739       0.000    
  49    10.00       9.942       9.839       9.710       9.568       9.393       9.219       9.045       8.778       8.411    
        8.065       7.773       7.493       7.247       7.036       6.809       6.601       6.480       6.421       6.361    
        6.290       6.179       6.067       5.994       5.932       5.878       5.786       5.646       5.483       5.334    
        5.163       4.888       4.594       4.375       4.121       3.833       3.573       3.368       3.133       2.816    
        2.587       2.430       2.221       1.890       1.583       1.292      0.9934      0.6950      0.3727       0.000    
  50    10.00       9.934       9.828       9.695       9.567       9.403       9.209       8.991       8.710       8.420    
        8.059       7.693       7.434       7.237       7.059       6.803       6.573       6.482       6.429       6.369    
        6.298       6.184       6.069       5.998       5.946       5.895       5.792       5.632       5.466       5.325    
        5.149       4.866       4.639       4.442       4.176       3.890       3.618       3.337       3.016       2.751    
        2.633       2.454       2.132       1.800       1.571       1.290       1.007      0.6807      0.3035       0.000    

 HEAD WILL BE SAVED ON UNIT   51 AT END OF TIME STEP  56, STRESS PERIOD    2

 DRAWDOWN WILL BE SAVED ON UNIT   52 AT END OF TIME STEP  56, STRESS PERIOD    2
1
  VOLUMETRIC BUDGET FOR ENTIRE MODEL AT END OF TIME STEP 56 IN STRESS PERIOD   2
  ------------------------------------------------------------------------------

     CUMULATIVE VOLUMES      L**3       RATES FOR THIS TIME STEP      L**3/T
     ------------------                 ------------------------

           IN:                                      IN:
           ---                                      ---
             STORAGE =       27261.7305               STORAGE =         452.3539
       CONSTANT HEAD =       34685.3555         CONSTANT HEAD =         637.6609
               WELLS =           0.0000                 WELLS =           0.0000

            TOTAL IN =       61947.0859              TOTAL IN =        1090.0149

          OUT:                                     OUT:
          ----                                     ----
             STORAGE =       9.4320E-03               STORAGE =           0.0000
       CONSTANT HEAD =       33947.0703         CONSTANT HEAD =         590.0146
               WELLS =       28000.0000                 WELLS =         500.0000

           TOTAL OUT =       61947.0781             TOTAL OUT =        1090.0146

            IN - OUT =       7.8125E-03              IN - OUT =       2.4414E-04

 PERCENT DISCREPANCY =           0.00     PERCENT DISCREPANCY =           0.00






          TIME SUMMARY AT END OF TIME STEP  56 IN STRESS PERIOD    2
                    SECONDS     MINUTES      HOURS       DAYS        YEARS
                    -----------------------------------------------------------
   TIME STEP LENGTH  86400.      1440.0      24.000      1.0000     2.73785E-03
 STRESS PERIOD TIME 4.83840E+06  80640.      1344.0      56.000     0.15332    
         TOTAL TIME 4.92480E+06  82080.      1368.0      57.000     0.15606    
1
 
 SOLVING FOR HEAD 

 OUTPUT CONTROL FOR STRESS PERIOD    2   TIME STEP  57
    SAVE HEAD FOR ALL LAYERS
    SAVE DRAWDOWN FOR ALL LAYERS
    SAVE BUDGET
    PRINT HEAD FOR ALL LAYERS
    PRINT BUDGET
 UBDSV1 SAVING "         STORAGE" ON UNIT  53 AT TIME STEP 57, STRESS PERIOD   2
 UBDSV2 SAVING "   CONSTANT HEAD" ON UNIT  53 AT TIME STEP 57, STRESS PERIOD   2
 UBDSV1 SAVING "FLOW RIGHT FACE " ON UNIT  53 AT TIME STEP 57, STRESS PERIOD   2
 UBDSV1 SAVING "FLOW FRONT FACE " ON UNIT  53 AT TIME STEP 57, STRESS PERIOD   2
1
              HEAD IN LAYER   1 AT END OF TIME STEP  57 IN STRESS PERIOD    2
  ---------------------------------------------------------------------------

            1           2           3           4           5           6           7           8           9          10
           11          12          13          14          15          16          17          18          19          20
           21          22          23          24          25          26          27          28          29          30
           31          32          33          34          35          36          37          38          39          40
           41          42          43          44          45          46          47          48          49          50
 ........................................................................................................................
   1    10.00       9.957       9.895       9.824       9.756       9.678       9.605       9.532       9.440       9.350    
        9.281       9.213       9.143       9.075       8.965       8.833       8.685       8.569       8.509       8.439    
        8.356       8.290       8.225       8.151       8.051       7.856       7.635       7.481       7.330       7.188    
        7.004       6.709       6.331       5.911       5.476       5.013       4.554       4.172       3.673       3.130    
        2.685       2.259       1.786       1.391       1.147      0.9408      0.7773      0.6590      0.4423       0.000    
   2    10.00       9.956       9.900       9.829       9.759       9.691       9.618       9.522       9.421       9.348    
        9.287       9.229       9.171       9.086       8.961       8.822       8.683       8.568       8.507       8.429    
        8.345       8.296       8.243       8.166       8.039       7.848       7.647       7.488       7.336       7.198    
        6.993       6.683       6.287       5.809       5.344       4.896       4.499       4.129       3.622       3.097    
        2.650       2.171       1.741       1.430       1.201       1.024      0.8215      0.6414      0.3578       0.000    
   3    10.00       9.950       9.894       9.831       9.770       9.700       9.606       9.505       9.434       9.368    
        9.301       9.247       9.196       9.114       8.986       8.815       8.663       8.570       8.498       8.419    
        8.351       8.299       8.245       8.140       8.003       7.832       7.658       7.533       7.356       7.176    
        6.917       6.550       6.096       5.633       5.221       4.804       4.415       4.019       3.491       3.005    
        2.622       2.182       1.789       1.505       1.278       1.094      0.8546      0.5731      0.2599       0.000    
   4    10.00       9.950       9.895       9.834       9.764       9.683       9.587       9.510       9.448       9.380    
        9.321       9.277       9.219       9.127       9.001       8.820       8.662       8.574       8.494       8.423    
        8.350       8.285       8.216       8.106       7.970       7.817       7.659       7.505       7.347       7.143    
        6.817       6.331       5.848       5.496       5.155       4.725       4.258       3.793       3.371       3.005    
        2.648       2.240       1.871       1.615       1.360       1.127      0.8302      0.5155      0.2470       0.000    
   5    10.00       9.946       9.891       9.822       9.752       9.677       9.589       9.523       9.459       9.396    
        9.344       9.301       9.225       9.117       8.979       8.813       8.679       8.584       8.504       8.408    
        8.320       8.250       8.166       8.059       7.937       7.779       7.622       7.480       7.322       7.072    
        6.603       6.056       5.670       5.395       5.058       4.593       4.111       3.690       3.376       3.046    
        2.696       2.321       1.956       1.719       1.445       1.109      0.7557      0.4596      0.2312       0.000    
   6    10.00       9.938       9.873       9.815       9.752       9.670       9.596       9.539       9.472       9.412    
        9.363       9.311       9.215       9.093       8.972       8.833       8.698       8.588       8.481       8.370    
        8.282       8.199       8.126       8.029       7.874       7.718       7.592       7.447       7.227       6.846    
        6.328       5.832       5.511       5.274       4.968       4.509       4.031       3.678       3.413       3.115    
        2.797       2.469       2.096       1.778       1.416       1.046      0.6674      0.3966      0.2184       0.000    
   7    10.00       9.927       9.863       9.809       9.743       9.675       9.609       9.555       9.494       9.434    
        9.375       9.294       9.190       9.075       8.960       8.851       8.709       8.558       8.435       8.326    
        8.234       8.154       8.090       7.968       7.809       7.678       7.549       7.353       6.996       6.509    
        6.014       5.614       5.397       5.186       4.832       4.402       4.081       3.741       3.454       3.260    
        2.960       2.609       2.171       1.718       1.313      0.9083      0.5748      0.3994      0.2056       0.000    
   8    10.00       9.926       9.868       9.807       9.741       9.681       9.623       9.568       9.512       9.455    
        9.376       9.274       9.170       9.061       8.955       8.832       8.654       8.495       8.395       8.290    
        8.186       8.118       8.023       7.891       7.752       7.615       7.397       7.091       6.639       6.212    
        5.843       5.536       5.338       5.097       4.719       4.364       4.076       3.825       3.604       3.383    
        3.091       2.650       2.113       1.630       1.208      0.8502      0.6084      0.3912      0.1876       0.000    
   9    10.00       9.938       9.868       9.801       9.752       9.701       9.644       9.586       9.523       9.462    
        9.370       9.254       9.141       9.032       8.918       8.773       8.600       8.454       8.345       8.237    
        8.145       8.057       7.928       7.802       7.673       7.503       7.187       6.776       6.354       6.042    
        5.739       5.487       5.270       4.969       4.620       4.324       4.105       3.922       3.725       3.483    
        3.133       2.653       2.106       1.627       1.217      0.8688      0.6138      0.3946      0.2018       0.000    
  10    10.00       9.935       9.861       9.807       9.761       9.712       9.660       9.610       9.537       9.447    
        9.336       9.214       9.106       9.004       8.886       8.707       8.525       8.398       8.298       8.197    
        8.110       7.987       7.845       7.703       7.551       7.304       6.899       6.473       6.114       5.863    
        5.669       5.456       5.193       4.890       4.565       4.318       4.153       3.994       3.782       3.505    
        3.105       2.608       2.109       1.700       1.316      0.9559      0.6330      0.4191      0.2253       0.000    
  11    10.00       9.921       9.861       9.817       9.771       9.730       9.682       9.612       9.512       9.411    
        9.300       9.180       9.080       8.957       8.796       8.625       8.475       8.362       8.270       8.168    
        8.038       7.881       7.687       7.525       7.270       6.925       6.580       6.266       5.966       5.781    
        5.631       5.360       5.074       4.823       4.575       4.386       4.216       4.014       3.753       3.417    
        3.041       2.658       2.181       1.779       1.414       1.057      0.7111      0.4116      0.1726       0.000    
  12    10.00       9.924       9.868       9.821       9.783       9.739       9.684       9.586       9.470       9.373    
        9.270       9.145       9.022       8.876       8.735       8.577       8.432       8.335       8.233       8.091    
        7.874       7.640       7.411       7.183       6.843       6.583       6.387       6.082       5.834       5.695    
        5.525       5.273       5.037       4.806       4.629       4.449       4.235       3.989       3.672       3.337    
        3.020       2.675       2.214       1.820       1.478       1.104      0.7480      0.3882      0.1288       0.000    
  13    10.00       9.938       9.886       9.836       9.790       9.739       9.651       9.538       9.429       9.330    
        9.213       9.091       8.964       8.811       8.656       8.507       8.401       8.280       8.145       7.865    
        7.538       7.289       7.037       6.733       6.472       6.347       6.127       5.859       5.724       5.596    
        5.396       5.179       4.994       4.822       4.671       4.505       4.250       3.920       3.617       3.302    
        3.000       2.644       2.151       1.785       1.491       1.094      0.6872      0.3350      0.1025       0.000    
  14    10.00       9.952       9.907       9.854       9.791       9.706       9.592       9.479       9.381       9.271    
        9.151       9.037       8.893       8.733       8.595       8.466       8.306       8.148       7.880       7.463    
        7.148       6.907       6.572       6.334       6.213       6.100       5.883       5.717       5.587       5.455    
        5.282       5.126       4.995       4.848       4.685       4.521       4.235       3.877       3.565       3.242    
        2.935       2.492       2.024       1.737       1.403       1.047      0.6875      0.3099      8.8264E-02   0.000    
  15    10.00       9.962       9.915       9.856       9.780       9.657       9.519       9.419       9.327       9.219    
        9.124       9.006       8.821       8.639       8.512       8.311       8.108       7.941       7.531       7.076    
        6.792       6.471       6.188       6.099       6.035       5.892       5.708       5.553       5.453       5.351    
        5.219       5.106       4.999       4.869       4.710       4.513       4.180       3.785       3.459       3.166    
        2.837       2.392       2.025       1.667       1.271      0.9573      0.6139      0.2839      9.6051E-02   0.000    
  16    10.00       9.969       9.918       9.845       9.734       9.587       9.464       9.384       9.303       9.194    
        9.081       8.907       8.676       8.500       8.317       8.085       7.949       7.612       7.036       6.637    
        6.388       6.113       6.012       5.960       5.842       5.659       5.516       5.439       5.390       5.302    
        5.192       5.090       5.000       4.870       4.679       4.412       4.034       3.696       3.440       3.134    
        2.753       2.317       1.923       1.534       1.194      0.8473      0.5503      0.2865      0.1023       0.000    
  17    10.00       9.964       9.904       9.806       9.680       9.528       9.419       9.350       9.253       9.137    
        8.935       8.692       8.498       8.318       8.081       7.850       7.564       7.027       6.548       6.299    
        6.103       5.957       5.887       5.766       5.584       5.454       5.412       5.388       5.340       5.251    
        5.155       5.066       4.971       4.841       4.568       4.221       3.931       3.713       3.467       3.099    
        2.619       2.194       1.828       1.464       1.070      0.7064      0.4688      0.2600      0.1083       0.000    
  18    10.00       9.949       9.871       9.758       9.593       9.465       9.388       9.285       9.167       8.994    
        8.737       8.534       8.352       8.077       7.769       7.450       7.049       6.582       6.289       6.099    
        5.950       5.823       5.710       5.546       5.421       5.381       5.363       5.339       5.278       5.193    
        5.112       5.023       4.903       4.702       4.423       4.146       3.921       3.743       3.435       2.983    
        2.523       2.079       1.712       1.370      0.9929      0.6513      0.3962      0.2172      0.1014       0.000    
  19    10.00       9.932       9.842       9.677       9.513       9.438       9.341       9.207       9.064       8.867    
        8.638       8.438       8.146       7.755       7.433       7.119       6.690       6.310       6.124       6.001    
        5.844       5.684       5.555       5.418       5.351       5.331       5.308       5.264       5.192       5.120    
        5.042       4.945       4.788       4.584       4.359       4.127       3.936       3.709       3.273       2.828    
        2.465       2.012       1.615       1.282      0.9118      0.5868      0.3564      0.2061      0.1032       0.000    
  20    10.00       9.912       9.775       9.603       9.483       9.397       9.289       9.146       8.975       8.792    
        8.553       8.254       7.859       7.499       7.214       6.839       6.449       6.255       6.099       5.930    
        5.760       5.593       5.435       5.334       5.288       5.251       5.199       5.153       5.085       5.021    
        4.946       4.850       4.695       4.519       4.319       4.123       3.921       3.570       3.114       2.737    
        2.335       1.896       1.544       1.212      0.8668      0.5272      0.3096      0.2079      0.1050       0.000    
  21    10.00       9.861       9.720       9.579       9.453       9.356       9.238       9.056       8.882       8.704    
        8.394       8.016       7.645       7.350       7.044       6.684       6.406       6.236       6.057       5.872    
        5.666       5.475       5.336       5.233       5.156       5.089       5.047       5.006       4.935       4.887    
        4.836       4.736       4.606       4.456       4.281       4.094       3.810       3.457       3.063       2.617    
        2.212       1.801       1.496       1.191      0.7534      0.4453      0.3172      0.2315      0.1112       0.000    
  22    10.00       9.840       9.674       9.537       9.430       9.314       9.140       8.958       8.803       8.568    
        8.240       7.846       7.526       7.280       6.944       6.613       6.378       6.204       6.026       5.803    
        5.565       5.372       5.192       5.033       4.930       4.881       4.849       4.795       4.771       4.743    
        4.704       4.629       4.532       4.395       4.234       4.054       3.759       3.408       2.945       2.506    
        2.157       1.783       1.445      0.9933      0.6203      0.4463      0.3355      0.2232      8.8626E-02   0.000    
  23    10.00       9.804       9.642       9.529       9.411       9.238       9.042       8.899       8.703       8.458    
        8.124       7.773       7.526       7.215       6.854       6.565       6.367       6.207       6.006       5.739    
        5.485       5.258       5.020       4.736       4.485       4.437       4.511       4.546       4.594       4.609    
        4.592       4.542       4.459       4.349       4.196       4.008       3.735       3.297       2.811       2.449    
        2.115       1.690       1.204      0.8116      0.6050      0.4579      0.3350      0.2125      9.8952E-02   0.000    
  24    10.00       9.777       9.659       9.529       9.362       9.172       9.017       8.862       8.669       8.387    
        8.079       7.807       7.535       7.161       6.779       6.551       6.387       6.221       5.978       5.709    
        5.457       5.196       4.831       4.180       3.198       3.530       3.980       4.264       4.415       4.475    
        4.491       4.459       4.402       4.291       4.142       3.953       3.614       3.153       2.739       2.356    
        1.949       1.499       1.068      0.7743      0.6019      0.4552      0.3272      0.2479      0.1365       0.000    
  25    10.00       9.805       9.681       9.523       9.349       9.178       9.020       8.872       8.637       8.355    
        8.098       7.835       7.503       7.093       6.797       6.589       6.406       6.210       5.984       5.735    
        5.463       5.203       4.538       3.150     -7.8251E-04   2.558       3.526       4.010       4.267       4.382    
        4.414       4.399       4.341       4.212       4.055       3.823       3.472       3.029       2.655       2.240    
        1.770       1.346      0.9945      0.7662      0.6261      0.4894      0.3577      0.2636      0.1720       0.000    
  26    10.00       9.833       9.716       9.546       9.366       9.217       9.053       8.866       8.626       8.407    
        8.185       7.837       7.418       7.069       6.853       6.666       6.449       6.195       5.955       5.741    
        5.532       5.246       4.634       3.627       2.568       3.088       3.649       4.001       4.219       4.341    
        4.369       4.352       4.275       4.149       3.997       3.746       3.286       2.876       2.561       2.053    
        1.542       1.191      0.9844      0.8311      0.6821      0.5307      0.3935      0.2882      0.1721       0.000    
  27    10.00       9.870       9.728       9.583       9.422       9.250       9.087       8.907       8.692       8.483    
        8.187       7.777       7.414       7.131       6.940       6.730       6.445       6.166       5.971       5.801    
        5.626       5.332       4.873       4.318       3.727       3.747       3.946       4.130       4.268       4.340    
        4.350       4.323       4.248       4.118       3.913       3.519       3.082       2.760       2.273       1.772    
        1.405       1.176       1.026      0.8958      0.7585      0.5839      0.4205      0.3148      0.2116       0.000    
  28    10.00       9.882       9.761       9.623       9.477       9.315       9.147       8.965       8.763       8.523    
        8.161       7.789       7.475       7.203       7.006       6.793       6.550       6.276       6.017       5.849    
        5.692       5.481       5.176       4.761       4.389       4.221       4.233       4.317       4.350       4.370    
        4.353       4.309       4.218       4.034       3.728       3.314       2.940       2.497       2.014       1.681    
        1.413       1.224       1.075      0.9463      0.8052      0.6382      0.4764      0.3580      0.2183       0.000    
  29    10.00       9.887       9.773       9.669       9.529       9.381       9.220       9.038       8.825       8.503    
        8.148       7.823       7.526       7.301       7.075       6.845       6.623       6.404       6.154       5.935    
        5.768       5.590       5.380       5.125       4.787       4.605       4.535       4.504       4.482       4.433    
        4.369       4.279       4.160       3.907       3.538       3.161       2.769       2.319       1.950       1.708    
        1.489       1.280       1.118      0.9922      0.8546      0.6834      0.5167      0.3783      0.2206       0.000    
  30    10.00       9.897       9.802       9.712       9.590       9.454       9.310       9.109       8.844       8.517    
        8.152       7.822       7.574       7.352       7.130       6.907       6.722       6.534       6.309       6.075    
        5.874       5.711       5.529       5.346       5.128       4.929       4.846       4.718       4.635       4.516    
        4.377       4.223       4.046       3.775       3.469       3.109       2.702       2.287       2.015       1.792    
        1.544       1.339       1.182       1.032      0.8773      0.7256      0.5508      0.3944      0.2383       0.000    
  31    10.00       9.915       9.833       9.748       9.660       9.553       9.397       9.161       8.855       8.516    
        8.164       7.858       7.622       7.396       7.198       6.993       6.799       6.655       6.438       6.214    
        6.021       5.851       5.691       5.521       5.379       5.221       5.066       4.917       4.754       4.580    
        4.370       4.161       3.974       3.753       3.446       3.068       2.679       2.335       2.114       1.913    
        1.656       1.419       1.236       1.077      0.9229      0.7621      0.5866      0.4216      0.2320       0.000    
  32    10.00       9.928       9.866       9.792       9.706       9.610       9.456       9.189       8.903       8.595    
        8.224       7.907       7.673       7.460       7.261       7.088       6.917       6.736       6.561       6.348    
        6.144       5.960       5.801       5.642       5.512       5.402       5.229       5.049       4.831       4.594    
        4.368       4.160       3.957       3.741       3.447       3.105       2.778       2.475       2.239       2.012    
        1.773       1.525       1.329       1.143      0.9665      0.8208      0.6410      0.4225      0.2099       0.000    
  33    10.00       9.938       9.887       9.828       9.745       9.636       9.441       9.183       8.944       8.661    
        8.301       7.987       7.745       7.515       7.330       7.183       7.031       6.852       6.657       6.461    
        6.249       6.051       5.865       5.710       5.606       5.495       5.320       5.093       4.867       4.641    
        4.418       4.224       4.016       3.743       3.464       3.153       2.871       2.628       2.381       2.133    
        1.909       1.674       1.458       1.263       1.066      0.8926      0.6903      0.4322      0.2036       0.000    
  34    10.00       9.944       9.910       9.859       9.757       9.607       9.420       9.230       8.985       8.678    
        8.363       8.058       7.800       7.571       7.405       7.288       7.127       6.947       6.735       6.550    
        6.356       6.123       5.937       5.794       5.687       5.553       5.349       5.146       4.912       4.665    
        4.476       4.302       4.112       3.841       3.551       3.265       3.005       2.786       2.531       2.281    
        2.065       1.849       1.619       1.419       1.210       1.005      0.7475      0.4803      0.2532       0.000    
  35    10.00       9.954       9.915       9.850       9.725       9.567       9.430       9.269       9.045       8.716    
        8.382       8.101       7.842       7.644       7.501       7.371       7.205       7.006       6.802       6.595    
        6.412       6.205       6.015       5.880       5.763       5.631       5.414       5.168       4.919       4.685    
        4.542       4.377       4.173       3.965       3.715       3.409       3.144       2.964       2.705       2.422    
        2.219       2.001       1.783       1.586       1.351       1.123      0.8628      0.5759      0.2878       0.000    
  36    10.00       9.951       9.897       9.824       9.700       9.550       9.427       9.278       9.054       8.748    
        8.401       8.097       7.902       7.744       7.610       7.450       7.251       7.058       6.841       6.586    
        6.392       6.227       6.064       5.946       5.833       5.674       5.444       5.187       4.933       4.718    
        4.576       4.436       4.244       4.046       3.830       3.551       3.284       3.085       2.856       2.551    
        2.322       2.102       1.879       1.716       1.489       1.236      0.9761      0.6762      0.3439       0.000    
  37    10.00       9.937       9.876       9.797       9.672       9.535       9.398       9.254       9.049       8.721    
        8.370       8.120       7.999       7.849       7.673       7.513       7.288       7.054       6.790       6.536    
        6.384       6.253       6.100       5.978       5.846       5.657       5.443       5.177       4.950       4.785    
        4.636       4.480       4.282       4.107       3.883       3.615       3.403       3.209       2.954       2.650    
        2.376       2.161       1.982       1.800       1.585       1.349       1.100      0.7635      0.4137       0.000    
  38    10.00       9.930       9.852       9.767       9.652       9.519       9.367       9.217       9.000       8.697    
        8.428       8.227       8.072       7.936       7.741       7.497       7.244       6.964       6.681       6.516    
        6.397       6.239       6.094       5.989       5.847       5.641       5.382       5.142       5.006       4.870    
        4.705       4.528       4.336       4.156       3.935       3.688       3.497       3.299       2.996       2.677    
        2.438       2.238       2.057       1.874       1.683       1.455       1.197      0.8738      0.4534       0.000    
  39    10.00       9.911       9.833       9.749       9.636       9.487       9.324       9.165       8.968       8.723    
        8.513       8.363       8.190       7.998       7.718       7.404       7.091       6.793       6.620       6.513    
        6.356       6.188       6.082       5.984       5.851       5.614       5.354       5.191       5.069       4.927    
        4.751       4.580       4.385       4.192       4.003       3.797       3.576       3.345       3.032       2.717    
        2.466       2.266       2.124       1.978       1.771       1.538       1.278      0.9260      0.4535       0.000    
  40    10.00       9.896       9.820       9.736       9.622       9.466       9.299       9.139       8.971       8.768    
        8.595       8.465       8.253       7.949       7.595       7.244       6.928       6.723       6.607       6.480    
        6.307       6.162       6.066       5.951       5.796       5.605       5.429       5.263       5.117       4.984    
        4.821       4.629       4.430       4.247       4.071       3.862       3.624       3.391       3.051       2.707    
        2.479       2.312       2.165       2.039       1.829       1.570       1.331      0.9621      0.4751       0.000    
  41    10.00       9.904       9.814       9.721       9.595       9.454       9.308       9.165       9.004       8.822    
        8.658       8.502       8.217       7.831       7.441       7.123       6.874       6.699       6.581       6.437    
        6.262       6.138       6.033       5.910       5.773       5.634       5.502       5.344       5.169       5.016    
        4.868       4.684       4.482       4.314       4.130       3.926       3.682       3.357       2.980       2.715    
        2.530       2.356       2.220       2.062       1.840       1.583       1.372       1.021      0.5230       0.000    
  42    10.00       9.907       9.808       9.722       9.612       9.480       9.334       9.175       9.031       8.892    
        8.696       8.417       8.061       7.663       7.312       7.067       6.852       6.688       6.550       6.378    
        6.218       6.103       5.997       5.908       5.790       5.687       5.564       5.383       5.197       5.059    
        4.928       4.729       4.511       4.354       4.196       3.966       3.653       3.265       2.929       2.726    
        2.579       2.431       2.262       2.057       1.827       1.620       1.407       1.063      0.5472       0.000    
  43    10.00       9.909       9.817       9.729       9.642       9.525       9.379       9.222       9.066       8.867    
        8.588       8.268       7.903       7.520       7.248       7.043       6.840       6.669       6.504       6.334    
        6.184       6.076       5.997       5.928       5.824       5.711       5.592       5.415       5.248       5.135    
        4.969       4.750       4.545       4.389       4.208       3.927       3.559       3.184       2.950       2.790    
        2.633       2.474       2.268       2.047       1.836       1.636       1.445       1.060      0.4776       0.000    
  44    10.00       9.903       9.819       9.743       9.647       9.558       9.434       9.243       9.033       8.759    
        8.477       8.140       7.741       7.463       7.252       7.026       6.805       6.611       6.432       6.280    
        6.173       6.087       6.012       5.940       5.851       5.736       5.596       5.456       5.327       5.183    
        5.024       4.826       4.594       4.374       4.161       3.874       3.490       3.166       2.979       2.824    
        2.674       2.497       2.291       2.093       1.873       1.652       1.401      0.9078      0.4012       0.000    
  45    10.00       9.903       9.834       9.747       9.656       9.576       9.396       9.179       8.932       8.662    
        8.425       8.021       7.650       7.442       7.228       6.981       6.732       6.534       6.377       6.267    
        6.191       6.114       6.036       5.949       5.853       5.749       5.631       5.512       5.406       5.260    
        5.068       4.856       4.622       4.356       4.114       3.802       3.441       3.186       3.031       2.876    
        2.681       2.477       2.297       2.118       1.926       1.687       1.264      0.7610      0.3855       0.000    
  46    10.00       9.920       9.846       9.754       9.654       9.504       9.314       9.134       8.908       8.644    
        8.303       7.932       7.634       7.375       7.155       6.912       6.664       6.509       6.391       6.290    
        6.219       6.148       6.055       5.952       5.858       5.764       5.668       5.563       5.457       5.322    
        5.143       4.922       4.662       4.361       4.025       3.689       3.426       3.251       3.080       2.901    
        2.677       2.464       2.284       2.141       1.934       1.601       1.133      0.7169      0.3643       0.000    
  47    10.00       9.937       9.869       9.773       9.601       9.419       9.257       9.103       8.901       8.571    
        8.203       7.858       7.572       7.354       7.119       6.849       6.636       6.498       6.404       6.321    
        6.245       6.163       6.072       5.970       5.876       5.795       5.710       5.605       5.483       5.350    
        5.192       4.996       4.660       4.262       3.945       3.698       3.469       3.319       3.161       2.913    
        2.646       2.423       2.255       2.138       1.879       1.481       1.052      0.6900      0.3541       0.000    
  48    10.00       9.945       9.873       9.728       9.555       9.404       9.231       9.076       8.860       8.513    
        8.112       7.799       7.567       7.307       7.034       6.792       6.631       6.497       6.407       6.346    
        6.270       6.171       6.070       5.982       5.907       5.838       5.757       5.641       5.496       5.341    
        5.178       4.954       4.606       4.279       4.002       3.756       3.542       3.372       3.169       2.872    
        2.589       2.409       2.269       2.050       1.704       1.348       1.005      0.6949      0.3739       0.000    
  49    10.00       9.942       9.839       9.710       9.568       9.393       9.218       9.044       8.777       8.410    
        8.064       7.772       7.492       7.245       7.035       6.807       6.600       6.478       6.419       6.359    
        6.288       6.177       6.065       5.992       5.930       5.876       5.785       5.644       5.481       5.332    
        5.161       4.887       4.593       4.374       4.120       3.832       3.572       3.367       3.132       2.815    
        2.587       2.430       2.221       1.890       1.582       1.292      0.9933      0.6949      0.3727       0.000    
  50    10.00       9.934       9.828       9.695       9.567       9.403       9.208       8.991       8.709       8.419    
        8.058       7.692       7.432       7.235       7.058       6.801       6.571       6.480       6.427       6.368    
        6.296       6.182       6.067       5.996       5.944       5.894       5.790       5.630       5.464       5.323    
        5.148       4.865       4.637       4.441       4.175       3.889       3.617       3.337       3.016       2.750    
        2.632       2.454       2.132       1.800       1.571       1.290       1.007      0.6806      0.3035       0.000    

 HEAD WILL BE SAVED ON UNIT   51 AT END OF TIME STEP  57, STRESS PERIOD    2

 DRAWDOWN WILL BE SAVED ON UNIT   52 AT END OF TIME STEP  57, STRESS PERIOD    2
1
  VOLUMETRIC BUDGET FOR ENTIRE MODEL AT END OF TIME STEP 57 IN STRESS PERIOD   2
  ------------------------------------------------------------------------------

     CUMULATIVE VOLUMES      L**3       RATES FOR THIS TIME STEP      L**3/T
     ------------------                 ------------------------

           IN:                                      IN:
           ---                                      ---
             STORAGE =       27712.1250               STORAGE =         450.3937
       CONSTANT HEAD =       35324.5586         CONSTANT HEAD =         639.2045
               WELLS =           0.0000                 WELLS =           0.0000

            TOTAL IN =       63036.6836              TOTAL IN =        1089.5981

          OUT:                                     OUT:
          ----                                     ----
             STORAGE =       9.4320E-03               STORAGE =           0.0000
       CONSTANT HEAD =       34536.6680         CONSTANT HEAD =         589.5989
               WELLS =       28500.0000                 WELLS =         500.0000

           TOTAL OUT =       63036.6758             TOTAL OUT =        1089.5989

            IN - OUT =       7.8125E-03              IN - OUT =      -7.3242E-04

 PERCENT DISCREPANCY =           0.00     PERCENT DISCREPANCY =           0.00






          TIME SUMMARY AT END OF TIME STEP  57 IN STRESS PERIOD    2
                    SECONDS     MINUTES      HOURS       DAYS        YEARS
                    -----------------------------------------------------------
   TIME STEP LENGTH  86400.      1440.0      24.000      1.0000     2.73785E-03
 STRESS PERIOD TIME 4.92480E+06  82080.      1368.0      57.000     0.15606    
         TOTAL TIME 5.01120E+06  83520.      1392.0      58.000     0.15880    
1
 
 SOLVING FOR HEAD 

 OUTPUT CONTROL FOR STRESS PERIOD    2   TIME STEP  58
    SAVE HEAD FOR ALL LAYERS
    SAVE DRAWDOWN FOR ALL LAYERS
    SAVE BUDGET
    PRINT HEAD FOR ALL LAYERS
    PRINT BUDGET
 UBDSV1 SAVING "         STORAGE" ON UNIT  53 AT TIME STEP 58, STRESS PERIOD   2
 UBDSV2 SAVING "   CONSTANT HEAD" ON UNIT  53 AT TIME STEP 58, STRESS PERIOD   2
 UBDSV1 SAVING "FLOW RIGHT FACE " ON UNIT  53 AT TIME STEP 58, STRESS PERIOD   2
 UBDSV1 SAVING "FLOW FRONT FACE " ON UNIT  53 AT TIME STEP 58, STRESS PERIOD   2
1
              HEAD IN LAYER   1 AT END OF TIME STEP  58 IN STRESS PERIOD    2
  ---------------------------------------------------------------------------

            1           2           3           4           5           6           7           8           9          10
           11          12          13          14          15          16          17          18          19          20
           21          22          23          24          25          26          27          28          29          30
           31          32          33          34          35          36          37          38          39          40
           41          42          43          44          45          46          47          48          49          50
 ........................................................................................................................
   1    10.00       9.957       9.895       9.824       9.756       9.677       9.604       9.531       9.439       9.349    
        9.279       9.211       9.140       9.073       8.962       8.830       8.682       8.566       8.506       8.436    
        8.353       8.286       8.222       8.147       8.048       7.852       7.631       7.477       7.326       7.184    
        7.000       6.705       6.327       5.908       5.473       5.010       4.551       4.169       3.671       3.128    
        2.683       2.258       1.785       1.390       1.146      0.9401      0.7768      0.6585      0.4420       0.000    
   2    10.00       9.955       9.899       9.828       9.759       9.690       9.617       9.521       9.420       9.346    
        9.286       9.227       9.169       9.084       8.958       8.819       8.680       8.565       8.503       8.425    
        8.342       8.292       8.240       8.162       8.035       7.844       7.643       7.484       7.332       7.194    
        6.989       6.680       6.283       5.805       5.341       4.893       4.496       4.127       3.619       3.095    
        2.648       2.170       1.739       1.429       1.200       1.023      0.8210      0.6409      0.3576       0.000    
   3    10.00       9.950       9.894       9.830       9.769       9.699       9.605       9.504       9.433       9.366    
        9.299       9.245       9.194       9.112       8.983       8.812       8.660       8.567       8.495       8.415    
        8.347       8.295       8.241       8.137       7.999       7.828       7.654       7.529       7.352       7.172    
        6.913       6.546       6.093       5.629       5.218       4.801       4.413       4.016       3.489       3.003    
        2.621       2.180       1.787       1.504       1.277       1.094      0.8540      0.5727      0.2597       0.000    
   4    10.00       9.950       9.894       9.833       9.764       9.683       9.586       9.508       9.447       9.378    
        9.319       9.275       9.217       9.125       8.999       8.817       8.659       8.571       8.490       8.419    
        8.346       8.281       8.212       8.102       7.966       7.813       7.655       7.500       7.343       7.139    
        6.813       6.327       5.844       5.492       5.152       4.722       4.255       3.790       3.369       3.003    
        2.646       2.238       1.869       1.614       1.359       1.126      0.8296      0.5151      0.2468       0.000    
   5    10.00       9.946       9.891       9.821       9.751       9.676       9.588       9.521       9.458       9.394    
        9.343       9.299       9.223       9.115       8.976       8.810       8.676       8.581       8.500       8.404    
        8.316       8.246       8.162       8.055       7.933       7.775       7.617       7.475       7.317       7.067    
        6.598       6.052       5.665       5.391       5.054       4.589       4.108       3.687       3.373       3.043    
        2.693       2.319       1.954       1.717       1.444       1.108      0.7551      0.4593      0.2310       0.000    
   6    10.00       9.938       9.873       9.815       9.751       9.669       9.595       9.538       9.471       9.410    
        9.362       9.309       9.213       9.091       8.970       8.830       8.695       8.585       8.478       8.366    
        8.278       8.195       8.122       8.025       7.869       7.714       7.587       7.442       7.222       6.841    
        6.323       5.827       5.505       5.269       4.964       4.505       4.027       3.674       3.410       3.112    
        2.795       2.467       2.094       1.777       1.415       1.045      0.6668      0.3963      0.2182       0.000    
   7    10.00       9.926       9.862       9.809       9.742       9.674       9.608       9.554       9.492       9.433    
        9.373       9.293       9.188       9.073       8.958       8.848       8.706       8.555       8.432       8.322    
        8.229       8.149       8.086       7.964       7.804       7.674       7.544       7.348       6.991       6.503    
        6.008       5.608       5.391       5.181       4.827       4.397       4.077       3.737       3.450       3.257    
        2.957       2.606       2.169       1.717       1.312      0.9076      0.5744      0.3991      0.2055       0.000    
   8    10.00       9.926       9.868       9.807       9.740       9.680       9.622       9.567       9.510       9.454    
        9.374       9.272       9.168       9.059       8.952       8.829       8.651       8.491       8.391       8.286    
        8.181       8.113       8.018       7.886       7.747       7.610       7.392       7.085       6.633       6.205    
        5.836       5.529       5.332       5.091       4.713       4.359       4.071       3.821       3.600       3.379    
        3.088       2.648       2.111       1.629       1.207      0.8494      0.6079      0.3909      0.1874       0.000    
   9    10.00       9.938       9.867       9.800       9.751       9.700       9.643       9.584       9.521       9.460    
        9.369       9.252       9.139       9.030       8.916       8.770       8.597       8.450       8.341       8.233    
        8.141       8.052       7.923       7.797       7.667       7.498       7.181       6.770       6.347       6.035    
        5.732       5.480       5.263       4.963       4.614       4.318       4.100       3.917       3.721       3.479    
        3.130       2.650       2.104       1.625       1.216      0.8680      0.6133      0.3943      0.2016       0.000    
  10    10.00       9.935       9.861       9.806       9.760       9.712       9.659       9.609       9.536       9.446    
        9.334       9.212       9.103       9.001       8.883       8.703       8.521       8.394       8.293       8.192    
        8.105       7.982       7.839       7.697       7.545       7.298       6.892       6.465       6.106       5.856    
        5.661       5.449       5.186       4.883       4.559       4.312       4.148       3.989       3.778       3.501    
        3.101       2.605       2.106       1.698       1.315      0.9550      0.6324      0.4187      0.2251       0.000    
  11    10.00       9.921       9.861       9.816       9.771       9.729       9.681       9.611       9.511       9.409    
        9.298       9.177       9.077       8.954       8.793       8.621       8.471       8.358       8.266       8.163    
        8.033       7.875       7.681       7.519       7.263       6.917       6.571       6.258       5.958       5.772    
        5.623       5.352       5.066       4.815       4.568       4.380       4.210       4.008       3.748       3.413    
        3.038       2.655       2.178       1.777       1.413       1.056      0.7104      0.4112      0.1725       0.000    
  12    10.00       9.923       9.868       9.820       9.782       9.738       9.683       9.585       9.469       9.371    
        9.267       9.142       9.019       8.873       8.731       8.573       8.428       8.330       8.228       8.086    
        7.868       7.633       7.404       7.176       6.834       6.574       6.378       6.072       5.824       5.686    
        5.516       5.265       5.029       4.798       4.621       4.443       4.228       3.983       3.667       3.333    
        3.016       2.671       2.212       1.818       1.476       1.103      0.7473      0.3878      0.1287       0.000    
  13    10.00       9.938       9.886       9.835       9.789       9.738       9.650       9.537       9.427       9.328    
        9.211       9.088       8.961       8.808       8.651       8.502       8.396       8.275       8.140       7.858    
        7.530       7.281       7.028       6.724       6.462       6.337       6.117       5.848       5.714       5.586    
        5.386       5.170       4.985       4.814       4.663       4.497       4.243       3.914       3.611       3.297    
        2.996       2.640       2.148       1.783       1.489       1.093      0.6865      0.3346      0.1024       0.000    
  14    10.00       9.952       9.907       9.854       9.790       9.705       9.591       9.477       9.379       9.269    
        9.148       9.034       8.889       8.728       8.590       8.461       8.300       8.142       7.873       7.455    
        7.139       6.897       6.562       6.324       6.202       6.089       5.872       5.706       5.576       5.444    
        5.271       5.116       4.985       4.838       4.677       4.513       4.228       3.871       3.560       3.237    
        2.930       2.489       2.021       1.735       1.402       1.046      0.6867      0.3096      8.8168E-02   0.000    
  15    10.00       9.962       9.915       9.855       9.779       9.655       9.517       9.417       9.324       9.216    
        9.121       9.003       8.817       8.634       8.506       8.305       8.101       7.934       7.523       7.066    
        6.781       6.459       6.176       6.087       6.023       5.881       5.696       5.542       5.441       5.339    
        5.208       5.096       4.989       4.860       4.701       4.504       4.172       3.778       3.453       3.160    
        2.832       2.389       2.022       1.665       1.269      0.9561      0.6131      0.2836      9.5938E-02   0.000    
  16    10.00       9.969       9.918       9.844       9.733       9.585       9.462       9.382       9.300       9.191    
        9.077       8.903       8.671       8.494       8.311       8.078       7.941       7.603       7.026       6.626    
        6.376       6.100       5.999       5.948       5.830       5.647       5.503       5.426       5.378       5.291    
        5.180       5.079       4.989       4.859       4.669       4.403       4.026       3.689       3.434       3.128    
        2.749       2.314       1.920       1.532       1.193      0.8462      0.5496      0.2861      0.1022       0.000    
  17    10.00       9.964       9.903       9.805       9.679       9.526       9.417       9.347       9.250       9.134    
        8.931       8.687       8.492       8.311       8.074       7.842       7.555       7.016       6.536       6.286    
        6.090       5.944       5.874       5.753       5.571       5.441       5.399       5.375       5.327       5.239    
        5.143       5.055       4.960       4.830       4.558       4.212       3.923       3.706       3.461       3.093    
        2.615       2.190       1.825       1.462       1.069      0.7055      0.4682      0.2597      0.1082       0.000    
  18    10.00       9.949       9.871       9.757       9.592       9.463       9.386       9.282       9.164       8.990    
        8.732       8.528       8.345       8.070       7.760       7.440       7.038       6.570       6.276       6.085    
        5.937       5.810       5.696       5.533       5.407       5.368       5.350       5.326       5.265       5.181    
        5.100       5.011       4.892       4.691       4.413       4.136       3.912       3.735       3.428       2.978    
        2.518       2.076       1.709       1.368      0.9915      0.6504      0.3957      0.2169      0.1013       0.000    
  19    10.00       9.932       9.842       9.676       9.511       9.436       9.338       9.204       9.060       8.862    
        8.632       8.431       8.139       7.746       7.423       7.108       6.678       6.297       6.111       5.987    
        5.830       5.670       5.541       5.404       5.337       5.318       5.295       5.250       5.178       5.107    
        5.029       4.932       4.776       4.573       4.349       4.117       3.927       3.701       3.266       2.823    
        2.460       2.009       1.612       1.280      0.9105      0.5859      0.3559      0.2058      0.1031       0.000    
  20    10.00       9.911       9.774       9.602       9.480       9.394       9.286       9.142       8.970       8.786    
        8.547       8.247       7.850       7.489       7.203       6.827       6.436       6.242       6.085       5.916    
        5.747       5.579       5.421       5.320       5.274       5.237       5.186       5.140       5.071       5.007    
        4.933       4.837       4.682       4.507       4.308       4.113       3.912       3.562       3.107       2.732    
        2.331       1.893       1.541       1.210      0.8655      0.5265      0.3092      0.2077      0.1049       0.000    
  21    10.00       9.860       9.718       9.578       9.451       9.354       9.235       9.051       8.877       8.698    
        8.387       8.008       7.635       7.339       7.032       6.671       6.393       6.223       6.043       5.859    
        5.652       5.461       5.322       5.219       5.142       5.074       5.033       4.992       4.921       4.873    
        4.822       4.723       4.593       4.444       4.269       4.083       3.801       3.448       3.056       2.611    
        2.208       1.798       1.493       1.189      0.7522      0.4446      0.3167      0.2311      0.1111       0.000    
  22    10.00       9.839       9.673       9.535       9.428       9.311       9.137       8.953       8.798       8.562    
        8.233       7.837       7.515       7.269       6.932       6.600       6.365       6.190       6.012       5.789    
        5.551       5.358       5.178       5.019       4.916       4.867       4.834       4.780       4.757       4.729    
        4.690       4.615       4.519       4.383       4.222       4.043       3.750       3.400       2.938       2.501    
        2.152       1.780       1.443      0.9917      0.6194      0.4457      0.3351      0.2229      8.8511E-02   0.000    
  23    10.00       9.803       9.640       9.526       9.409       9.235       9.038       8.894       8.697       8.451    
        8.116       7.764       7.516       7.204       6.842       6.552       6.354       6.193       5.992       5.725    
        5.471       5.244       5.005       4.722       4.470       4.422       4.496       4.531       4.579       4.594    
        4.577       4.528       4.445       4.336       4.184       3.997       3.725       3.289       2.804       2.444    
        2.111       1.687       1.202      0.8104      0.6041      0.4573      0.3345      0.2122      9.8828E-02   0.000    
  24    10.00       9.776       9.658       9.526       9.359       9.168       9.013       8.856       8.663       8.379    
        8.071       7.798       7.524       7.150       6.767       6.538       6.374       6.207       5.964       5.695    
        5.443       5.181       4.817       4.165       3.183       3.514       3.964       4.248       4.399       4.460    
        4.476       4.445       4.388       4.277       4.130       3.941       3.604       3.145       2.733       2.351    
        1.945       1.496       1.067      0.7733      0.6011      0.4546      0.3268      0.2476      0.1363       0.000    
  25    10.00       9.804       9.680       9.521       9.346       9.175       9.016       8.867       8.631       8.348    
        8.089       7.826       7.493       7.082       6.785       6.576       6.393       6.197       5.970       5.721    
        5.448       5.188       4.523       3.135     -1.7708E-02   2.541       3.510       3.995       4.251       4.367    
        4.399       4.385       4.327       4.198       4.043       3.812       3.462       3.021       2.649       2.236    
        1.767       1.344      0.9932      0.7653      0.6253      0.4888      0.3572      0.2632      0.1718       0.000    
  26    10.00       9.833       9.715       9.544       9.364       9.214       9.049       8.861       8.620       8.400    
        8.177       7.828       7.407       7.058       6.841       6.653       6.435       6.181       5.941       5.727    
        5.517       5.231       4.619       3.611       2.552       3.072       3.633       3.986       4.203       4.326    
        4.354       4.337       4.261       4.136       3.985       3.735       3.277       2.869       2.555       2.049    
        1.540       1.190      0.9831      0.8301      0.6813      0.5300      0.3930      0.2879      0.1719       0.000    
  27    10.00       9.869       9.726       9.581       9.420       9.247       9.083       8.902       8.686       8.477    
        8.179       7.768       7.403       7.119       6.928       6.717       6.432       6.153       5.957       5.787    
        5.612       5.317       4.858       4.302       3.711       3.731       3.929       4.114       4.253       4.324    
        4.335       4.308       4.234       4.105       3.901       3.509       3.075       2.754       2.268       1.769    
        1.403       1.175       1.024      0.8948      0.7577      0.5833      0.4200      0.3144      0.2113       0.000    
  28    10.00       9.881       9.760       9.621       9.475       9.312       9.143       8.961       8.758       8.516    
        8.153       7.780       7.464       7.192       6.994       6.781       6.537       6.263       6.004       5.835    
        5.678       5.467       5.161       4.746       4.373       4.206       4.217       4.301       4.335       4.355    
        4.338       4.295       4.205       4.022       3.717       3.305       2.934       2.492       2.011       1.678    
        1.411       1.223       1.074      0.9452      0.8043      0.6375      0.4759      0.3576      0.2180       0.000    
  29    10.00       9.887       9.772       9.668       9.527       9.378       9.216       9.034       8.820       8.497    
        8.140       7.814       7.516       7.290       7.063       6.833       6.611       6.392       6.141       5.922    
        5.754       5.576       5.365       5.110       4.771       4.589       4.519       4.488       4.467       4.418    
        4.355       4.266       4.148       3.897       3.529       3.154       2.763       2.316       1.947       1.705    
        1.487       1.279       1.116      0.9911      0.8537      0.6827      0.5162      0.3780      0.2203       0.000    
  30    10.00       9.897       9.802       9.710       9.589       9.451       9.307       9.105       8.839       8.511    
        8.144       7.814       7.564       7.342       7.119       6.896       6.710       6.522       6.296       6.062    
        5.861       5.697       5.515       5.331       5.113       4.914       4.832       4.703       4.621       4.502    
        4.365       4.212       4.036       3.767       3.462       3.103       2.698       2.284       2.013       1.790    
        1.542       1.337       1.181       1.031      0.8764      0.7249      0.5503      0.3940      0.2381       0.000    
  31    10.00       9.914       9.832       9.747       9.659       9.551       9.394       9.157       8.850       8.510    
        8.157       7.850       7.613       7.386       7.188       6.982       6.787       6.643       6.426       6.201    
        6.008       5.838       5.677       5.507       5.365       5.207       5.052       4.903       4.741       4.568    
        4.359       4.152       3.966       3.746       3.439       3.063       2.675       2.332       2.111       1.911    
        1.654       1.418       1.234       1.076      0.9220      0.7614      0.5861      0.4212      0.2318       0.000    
  32    10.00       9.928       9.865       9.791       9.705       9.608       9.454       9.186       8.899       8.590    
        8.217       7.899       7.664       7.451       7.251       7.078       6.906       6.725       6.549       6.335    
        6.132       5.947       5.788       5.629       5.499       5.389       5.216       5.036       4.819       4.583    
        4.359       4.152       3.949       3.734       3.442       3.101       2.774       2.472       2.236       2.010    
        1.771       1.524       1.328       1.142      0.9657      0.8201      0.6405      0.4221      0.2097       0.000    
  33    10.00       9.938       9.887       9.827       9.744       9.634       9.439       9.180       8.940       8.655    
        8.295       7.980       7.737       7.506       7.321       7.173       7.021       6.841       6.646       6.450    
        6.237       6.039       5.852       5.698       5.593       5.482       5.308       5.082       4.857       4.632    
        4.410       4.217       4.009       3.737       3.458       3.148       2.868       2.625       2.378       2.131    
        1.908       1.673       1.457       1.262       1.065      0.8919      0.6899      0.4320      0.2035       0.000    
  34    10.00       9.944       9.910       9.858       9.756       9.606       9.417       9.227       8.981       8.673    
        8.357       8.051       7.793       7.563       7.396       7.279       7.118       6.937       6.725       6.539    
        6.345       6.112       5.925       5.782       5.675       5.541       5.338       5.136       4.903       4.657    
        4.469       4.295       4.106       3.836       3.547       3.261       3.002       2.783       2.529       2.279    
        2.064       1.848       1.618       1.418       1.209       1.005      0.7471      0.4801      0.2531       0.000    
  35    10.00       9.954       9.915       9.850       9.724       9.565       9.429       9.267       9.042       8.712    
        8.377       8.095       7.835       7.636       7.493       7.362       7.196       6.996       6.792       6.585    
        6.402       6.195       6.004       5.869       5.753       5.621       5.404       5.159       4.912       4.679    
        4.537       4.372       4.168       3.961       3.711       3.405       3.141       2.962       2.703       2.421    
        2.217       2.000       1.782       1.585       1.350       1.123      0.8625      0.5757      0.2877       0.000    
  36    10.00       9.951       9.896       9.823       9.699       9.548       9.425       9.276       9.051       8.744    
        8.396       8.092       7.896       7.737       7.603       7.442       7.243       7.049       6.832       6.577    
        6.383       6.219       6.055       5.937       5.824       5.665       5.436       5.180       4.927       4.712    
        4.572       4.432       4.240       4.042       3.827       3.549       3.282       3.083       2.855       2.549    
        2.320       2.101       1.878       1.715       1.489       1.236      0.9757      0.6760      0.3438       0.000    
  37    10.00       9.936       9.876       9.796       9.671       9.534       9.396       9.252       9.047       8.717    
        8.366       8.115       7.993       7.842       7.666       7.506       7.281       7.046       6.782       6.528    
        6.376       6.246       6.092       5.970       5.838       5.650       5.436       5.172       4.946       4.781    
        4.632       4.476       4.279       4.104       3.880       3.613       3.401       3.207       2.952       2.649    
        2.375       2.160       1.981       1.799       1.584       1.349       1.099      0.7633      0.4136       0.000    
  38    10.00       9.930       9.852       9.767       9.652       9.518       9.366       9.215       8.998       8.693    
        8.424       8.222       8.066       7.930       7.735       7.491       7.237       6.958       6.674       6.509    
        6.391       6.232       6.088       5.982       5.840       5.635       5.377       5.138       5.002       4.866    
        4.702       4.524       4.333       4.154       3.933       3.686       3.495       3.297       2.994       2.676    
        2.437       2.238       2.056       1.874       1.682       1.455       1.197      0.8735      0.4533       0.000    
  39    10.00       9.911       9.832       9.748       9.635       9.486       9.322       9.164       8.966       8.720    
        8.510       8.359       8.185       7.993       7.713       7.398       7.086       6.788       6.615       6.508    
        6.350       6.182       6.077       5.979       5.846       5.610       5.351       5.188       5.065       4.924    
        4.748       4.577       4.382       4.189       4.001       3.795       3.574       3.343       3.031       2.716    
        2.465       2.265       2.124       1.978       1.770       1.538       1.277      0.9258      0.4534       0.000    
  40    10.00       9.896       9.820       9.735       9.621       9.465       9.297       9.137       8.969       8.765    
        8.592       8.462       8.249       7.945       7.590       7.240       6.923       6.718       6.603       6.475    
        6.303       6.157       6.062       5.947       5.792       5.602       5.425       5.260       5.114       4.981    
        4.819       4.627       4.427       4.244       4.069       3.860       3.622       3.390       3.049       2.706    
        2.478       2.311       2.164       2.039       1.828       1.570       1.331      0.9619      0.4750       0.000    
  41    10.00       9.904       9.814       9.721       9.595       9.454       9.306       9.163       9.002       8.820    
        8.656       8.499       8.214       7.828       7.437       7.119       6.870       6.696       6.577       6.433    
        6.259       6.134       6.030       5.907       5.770       5.631       5.500       5.341       5.167       5.013    
        4.866       4.682       4.480       4.312       4.128       3.924       3.680       3.356       2.979       2.714    
        2.529       2.355       2.219       2.061       1.839       1.583       1.372       1.021      0.5229       0.000    
  42    10.00       9.907       9.807       9.721       9.611       9.480       9.333       9.173       9.029       8.890    
        8.694       8.415       8.058       7.660       7.309       7.064       6.849       6.685       6.547       6.375    
        6.215       6.100       5.994       5.905       5.788       5.684       5.562       5.381       5.195       5.057    
        4.926       4.727       4.509       4.352       4.194       3.965       3.651       3.263       2.928       2.726    
        2.578       2.430       2.262       2.057       1.826       1.620       1.407       1.063      0.5471       0.000    
  43    10.00       9.908       9.817       9.729       9.642       9.524       9.378       9.221       9.064       8.865    
        8.586       8.266       7.901       7.518       7.246       7.040       6.837       6.667       6.501       6.331    
        6.181       6.074       5.994       5.925       5.822       5.709       5.590       5.413       5.246       5.133    
        4.967       4.748       4.543       4.387       4.206       3.925       3.557       3.183       2.949       2.790    
        2.633       2.473       2.268       2.046       1.836       1.636       1.444       1.060      0.4775       0.000    
  44    10.00       9.903       9.819       9.743       9.647       9.557       9.433       9.242       9.032       8.757    
        8.475       8.138       7.739       7.461       7.250       7.024       6.803       6.609       6.430       6.278    
        6.171       6.084       6.010       5.938       5.848       5.734       5.594       5.454       5.325       5.181    
        5.022       4.824       4.592       4.372       4.160       3.873       3.489       3.165       2.978       2.823    
        2.673       2.496       2.291       2.093       1.873       1.651       1.401      0.9076      0.4011       0.000    
  45    10.00       9.903       9.834       9.746       9.656       9.576       9.395       9.178       8.931       8.661    
        8.424       8.020       7.649       7.441       7.226       6.979       6.730       6.532       6.375       6.265    
        6.188       6.112       6.033       5.947       5.851       5.747       5.629       5.510       5.404       5.258    
        5.066       4.854       4.620       4.354       4.113       3.801       3.440       3.185       3.031       2.875    
        2.681       2.477       2.296       2.118       1.925       1.687       1.264      0.7609      0.3854       0.000    
  46    10.00       9.920       9.846       9.753       9.654       9.503       9.313       9.133       8.908       8.643    
        8.302       7.930       7.633       7.373       7.153       6.910       6.662       6.507       6.389       6.288    
        6.217       6.146       6.053       5.950       5.856       5.762       5.666       5.561       5.455       5.320    
        5.142       4.921       4.660       4.360       4.023       3.688       3.425       3.250       3.079       2.901    
        2.676       2.464       2.284       2.140       1.934       1.601       1.133      0.7168      0.3642       0.000    
  47    10.00       9.937       9.869       9.772       9.601       9.418       9.256       9.102       8.900       8.570    
        8.202       7.857       7.570       7.352       7.117       6.847       6.634       6.496       6.402       6.319    
        6.243       6.161       6.070       5.968       5.874       5.793       5.708       5.604       5.481       5.348    
        5.190       4.994       4.658       4.261       3.944       3.697       3.468       3.318       3.161       2.913    
        2.645       2.422       2.254       2.137       1.878       1.481       1.052      0.6898      0.3541       0.000    
  48    10.00       9.945       9.873       9.728       9.554       9.404       9.230       9.075       8.859       8.512    
        8.111       7.798       7.566       7.306       7.032       6.791       6.630       6.495       6.405       6.344    
        6.268       6.169       6.068       5.980       5.905       5.836       5.755       5.639       5.495       5.339    
        5.176       4.952       4.605       4.278       4.001       3.755       3.541       3.371       3.168       2.871    
        2.588       2.409       2.269       2.049       1.703       1.348       1.004      0.6948      0.3738       0.000    
  49    10.00       9.942       9.839       9.710       9.568       9.392       9.218       9.043       8.776       8.409    
        8.063       7.770       7.490       7.244       7.033       6.806       6.598       6.476       6.417       6.357    
        6.286       6.175       6.063       5.990       5.928       5.874       5.783       5.643       5.479       5.330    
        5.160       4.885       4.592       4.373       4.119       3.831       3.571       3.366       3.131       2.815    
        2.586       2.429       2.220       1.890       1.582       1.292      0.9931      0.6948      0.3726       0.000    
  50    10.00       9.934       9.827       9.695       9.566       9.403       9.208       8.990       8.709       8.418    
        8.057       7.691       7.431       7.234       7.056       6.799       6.569       6.479       6.425       6.366    
        6.294       6.180       6.065       5.994       5.942       5.892       5.788       5.628       5.463       5.321    
        5.146       4.863       4.636       4.440       4.174       3.888       3.616       3.336       3.015       2.750    
        2.632       2.453       2.131       1.800       1.571       1.290       1.007      0.6805      0.3034       0.000    

 HEAD WILL BE SAVED ON UNIT   51 AT END OF TIME STEP  58, STRESS PERIOD    2

 DRAWDOWN WILL BE SAVED ON UNIT   52 AT END OF TIME STEP  58, STRESS PERIOD    2
1
  VOLUMETRIC BUDGET FOR ENTIRE MODEL AT END OF TIME STEP 58 IN STRESS PERIOD   2
  ------------------------------------------------------------------------------

     CUMULATIVE VOLUMES      L**3       RATES FOR THIS TIME STEP      L**3/T
     ------------------                 ------------------------

           IN:                                      IN:
           ---                                      ---
             STORAGE =       28160.5410               STORAGE =         448.4162
       CONSTANT HEAD =       35965.3164         CONSTANT HEAD =         640.7563
               WELLS =           0.0000                 WELLS =           0.0000

            TOTAL IN =       64125.8594              TOTAL IN =        1089.1725

          OUT:                                     OUT:
          ----                                     ----
             STORAGE =       9.4320E-03               STORAGE =           0.0000
       CONSTANT HEAD =       35125.8398         CONSTANT HEAD =         589.1725
               WELLS =       29000.0000                 WELLS =         500.0000

           TOTAL OUT =       64125.8477             TOTAL OUT =        1089.1725

            IN - OUT =       1.1719E-02              IN - OUT =           0.0000

 PERCENT DISCREPANCY =           0.00     PERCENT DISCREPANCY =           0.00






          TIME SUMMARY AT END OF TIME STEP  58 IN STRESS PERIOD    2
                    SECONDS     MINUTES      HOURS       DAYS        YEARS
                    -----------------------------------------------------------
   TIME STEP LENGTH  86400.      1440.0      24.000      1.0000     2.73785E-03
 STRESS PERIOD TIME 5.01120E+06  83520.      1392.0      58.000     0.15880    
         TOTAL TIME 5.09760E+06  84960.      1416.0      59.000     0.16153    
1
 
 SOLVING FOR HEAD 

 OUTPUT CONTROL FOR STRESS PERIOD    2   TIME STEP  59
    SAVE HEAD FOR ALL LAYERS
    SAVE DRAWDOWN FOR ALL LAYERS
    SAVE BUDGET
    PRINT HEAD FOR ALL LAYERS
    PRINT BUDGET
 UBDSV1 SAVING "         STORAGE" ON UNIT  53 AT TIME STEP 59, STRESS PERIOD   2
 UBDSV2 SAVING "   CONSTANT HEAD" ON UNIT  53 AT TIME STEP 59, STRESS PERIOD   2
 UBDSV1 SAVING "FLOW RIGHT FACE " ON UNIT  53 AT TIME STEP 59, STRESS PERIOD   2
 UBDSV1 SAVING "FLOW FRONT FACE " ON UNIT  53 AT TIME STEP 59, STRESS PERIOD   2
1
              HEAD IN LAYER   1 AT END OF TIME STEP  59 IN STRESS PERIOD    2
  ---------------------------------------------------------------------------

            1           2           3           4           5           6           7           8           9          10
           11          12          13          14          15          16          17          18          19          20
           21          22          23          24          25          26          27          28          29          30
           31          32          33          34          35          36          37          38          39          40
           41          42          43          44          45          46          47          48          49          50
 ........................................................................................................................
   1    10.00       9.956       9.894       9.824       9.755       9.677       9.603       9.530       9.438       9.347    
        9.277       9.209       9.138       9.070       8.960       8.827       8.679       8.562       8.502       8.432    
        8.349       8.283       8.218       8.143       8.044       7.848       7.627       7.473       7.322       7.181    
        6.996       6.701       6.324       5.904       5.469       5.007       4.549       4.167       3.669       3.126    
        2.681       2.256       1.784       1.389       1.146      0.9394      0.7762      0.6580      0.4417       0.000    
   2    10.00       9.955       9.899       9.828       9.758       9.689       9.616       9.519       9.418       9.344    
        9.284       9.225       9.167       9.082       8.956       8.817       8.677       8.562       8.500       8.422    
        8.338       8.288       8.236       8.158       8.031       7.840       7.639       7.480       7.328       7.190    
        6.985       6.676       6.280       5.802       5.338       4.890       4.493       4.124       3.617       3.093    
        2.646       2.168       1.738       1.428       1.200       1.023      0.8204      0.6405      0.3573       0.000    
   3    10.00       9.949       9.893       9.830       9.769       9.698       9.604       9.503       9.431       9.365    
        9.297       9.244       9.192       9.110       8.981       8.809       8.657       8.564       8.491       8.412    
        8.344       8.292       8.237       8.133       7.995       7.824       7.650       7.525       7.348       7.168    
        6.909       6.542       6.089       5.625       5.214       4.798       4.410       4.013       3.487       3.001    
        2.619       2.179       1.786       1.503       1.276       1.093      0.8534      0.5723      0.2595       0.000    
   4    10.00       9.949       9.894       9.833       9.763       9.682       9.585       9.507       9.445       9.377    
        9.317       9.273       9.215       9.123       8.997       8.814       8.656       8.568       8.487       8.416    
        8.342       8.277       8.208       8.098       7.962       7.809       7.650       7.496       7.339       7.134    
        6.809       6.323       5.840       5.488       5.148       4.718       4.252       3.787       3.366       3.001    
        2.644       2.237       1.868       1.613       1.358       1.125      0.8290      0.5147      0.2466       0.000    
   5    10.00       9.946       9.890       9.821       9.751       9.675       9.587       9.520       9.457       9.393    
        9.341       9.297       9.221       9.113       8.974       8.807       8.673       8.577       8.497       8.401    
        8.312       8.242       8.158       8.050       7.928       7.771       7.613       7.471       7.313       7.063    
        6.593       6.047       5.661       5.386       5.049       4.586       4.104       3.683       3.370       3.040    
        2.691       2.317       1.953       1.716       1.443       1.107      0.7545      0.4589      0.2308       0.000    
   6    10.00       9.938       9.872       9.814       9.750       9.668       9.594       9.537       9.470       9.409    
        9.360       9.307       9.211       9.089       8.967       8.828       8.692       8.581       8.474       8.363    
        8.274       8.191       8.118       8.021       7.865       7.709       7.583       7.438       7.217       6.837    
        6.317       5.821       5.500       5.264       4.959       4.501       4.023       3.671       3.407       3.109    
        2.792       2.464       2.092       1.775       1.414       1.044      0.6663      0.3960      0.2180       0.000    
   7    10.00       9.926       9.862       9.808       9.742       9.673       9.607       9.553       9.491       9.432    
        9.371       9.291       9.186       9.071       8.955       8.845       8.703       8.551       8.428       8.318    
        8.225       8.145       8.082       7.959       7.799       7.669       7.540       7.343       6.986       6.497    
        6.003       5.602       5.386       5.175       4.822       4.392       4.072       3.733       3.446       3.254    
        2.954       2.604       2.167       1.715       1.311      0.9068      0.5739      0.3988      0.2053       0.000    
   8    10.00       9.925       9.868       9.806       9.740       9.679       9.621       9.566       9.509       9.452    
        9.373       9.270       9.166       9.057       8.950       8.826       8.647       8.488       8.387       8.282    
        8.177       8.109       8.014       7.881       7.742       7.605       7.386       7.080       6.627       6.199    
        5.830       5.523       5.326       5.085       4.708       4.354       4.066       3.816       3.596       3.375    
        3.084       2.645       2.109       1.627       1.206      0.8487      0.6074      0.3906      0.1873       0.000    
   9    10.00       9.937       9.867       9.800       9.750       9.700       9.642       9.583       9.520       9.459    
        9.367       9.250       9.136       9.027       8.913       8.766       8.593       8.446       8.337       8.229    
        8.136       8.047       7.918       7.792       7.662       7.492       7.175       6.763       6.340       6.027    
        5.725       5.473       5.257       4.957       4.608       4.313       4.095       3.912       3.716       3.475    
        3.126       2.648       2.102       1.624       1.214      0.8673      0.6127      0.3939      0.2015       0.000    
  10    10.00       9.935       9.861       9.806       9.760       9.711       9.659       9.608       9.535       9.444    
        9.333       9.210       9.101       8.999       8.880       8.700       8.517       8.389       8.289       8.188    
        8.101       7.977       7.834       7.691       7.539       7.292       6.885       6.458       6.098       5.848    
        5.654       5.442       5.179       4.876       4.552       4.306       4.142       3.984       3.773       3.496    
        3.097       2.602       2.104       1.696       1.314      0.9541      0.6318      0.4184      0.2249       0.000    
  11    10.00       9.921       9.861       9.816       9.770       9.728       9.680       9.610       9.509       9.407    
        9.296       9.175       9.074       8.951       8.789       8.617       8.466       8.353       8.261       8.158    
        8.028       7.870       7.675       7.512       7.256       6.910       6.563       6.250       5.949       5.764    
        5.615       5.344       5.059       4.808       4.561       4.374       4.204       4.003       3.743       3.408    
        3.034       2.652       2.176       1.775       1.411       1.055      0.7098      0.4109      0.1723       0.000    
  12    10.00       9.923       9.868       9.820       9.781       9.738       9.683       9.584       9.467       9.369    
        9.265       9.139       9.016       8.869       8.727       8.568       8.423       8.325       8.223       8.080    
        7.863       7.626       7.397       7.168       6.826       6.565       6.369       6.063       5.815       5.677    
        5.507       5.256       5.021       4.790       4.614       4.436       4.222       3.978       3.662       3.328    
        3.012       2.668       2.209       1.816       1.475       1.102      0.7465      0.3875      0.1286       0.000    
  13    10.00       9.938       9.885       9.835       9.789       9.737       9.649       9.535       9.425       9.326    
        9.208       9.085       8.957       8.804       8.647       8.498       8.392       8.270       8.134       7.852    
        7.523       7.273       7.020       6.714       6.452       6.327       6.107       5.838       5.704       5.576    
        5.377       5.161       4.976       4.806       4.655       4.490       4.237       3.908       3.606       3.292    
        2.992       2.637       2.145       1.780       1.487       1.092      0.6858      0.3343      0.1023       0.000    
  14    10.00       9.952       9.907       9.853       9.790       9.704       9.590       9.476       9.377       9.266    
        9.146       9.031       8.885       8.724       8.585       8.456       8.295       8.136       7.866       7.447    
        7.130       6.888       6.551       6.313       6.191       6.078       5.861       5.695       5.565       5.433    
        5.261       5.106       4.976       4.829       4.668       4.506       4.221       3.864       3.554       3.232    
        2.926       2.485       2.019       1.732       1.400       1.044      0.6859      0.3092      8.8069E-02   0.000    
  15    10.00       9.962       9.915       9.855       9.779       9.654       9.515       9.415       9.322       9.213    
        9.118       8.999       8.813       8.630       8.501       8.299       8.095       7.927       7.515       7.056    
        6.771       6.448       6.164       6.075       6.011       5.869       5.685       5.530       5.430       5.328    
        5.197       5.085       4.979       4.850       4.692       4.496       4.164       3.772       3.447       3.155    
        2.828       2.385       2.019       1.662       1.268      0.9549      0.6124      0.2832      9.5823E-02   0.000    
  16    10.00       9.968       9.918       9.844       9.732       9.584       9.460       9.380       9.298       9.188    
        9.074       8.899       8.667       8.489       8.304       8.071       7.934       7.595       7.015       6.615    
        6.364       6.088       5.987       5.935       5.818       5.634       5.491       5.414       5.366       5.279    
        5.169       5.068       4.978       4.849       4.660       4.394       4.018       3.682       3.428       3.123    
        2.744       2.310       1.917       1.530       1.191      0.8450      0.5489      0.2858      0.1020       0.000    
  17    10.00       9.964       9.903       9.804       9.678       9.524       9.414       9.345       9.247       9.131    
        8.927       8.681       8.486       8.305       8.066       7.834       7.546       7.005       6.524       6.274    
        6.078       5.932       5.861       5.740       5.558       5.428       5.386       5.362       5.315       5.227    
        5.131       5.043       4.949       4.819       4.548       4.203       3.914       3.698       3.454       3.087    
        2.610       2.187       1.823       1.460       1.067      0.7045      0.4676      0.2593      0.1080       0.000    
  18    10.00       9.949       9.870       9.756       9.590       9.461       9.383       9.279       9.160       8.986    
        8.726       8.522       8.338       8.062       7.751       7.430       7.027       6.557       6.263       6.072    
        5.924       5.797       5.683       5.520       5.394       5.354       5.337       5.313       5.252       5.168    
        5.088       5.000       4.880       4.680       4.403       4.127       3.904       3.727       3.421       2.972    
        2.514       2.072       1.706       1.366      0.9900      0.6495      0.3951      0.2166      0.1011       0.000    
  19    10.00       9.931       9.841       9.675       9.509       9.434       9.336       9.200       9.056       8.857    
        8.627       8.424       8.131       7.737       7.412       7.097       6.665       6.284       6.098       5.974    
        5.817       5.657       5.528       5.391       5.324       5.304       5.281       5.237       5.165       5.094    
        5.016       4.920       4.764       4.562       4.339       4.108       3.918       3.693       3.259       2.817    
        2.455       2.005       1.610       1.278      0.9091      0.5851      0.3554      0.2055      0.1029       0.000    
  20    10.00       9.911       9.773       9.600       9.478       9.392       9.283       9.138       8.966       8.781    
        8.541       8.239       7.841       7.479       7.192       6.815       6.424       6.229       6.072       5.903    
        5.733       5.565       5.407       5.306       5.260       5.223       5.172       5.126       5.057       4.994    
        4.920       4.824       4.670       4.495       4.297       4.103       3.903       3.554       3.101       2.726    
        2.326       1.890       1.539       1.208      0.8641      0.5257      0.3087      0.2074      0.1048       0.000    
  21    10.00       9.859       9.717       9.576       9.448       9.351       9.232       9.047       8.872       8.693    
        8.380       7.999       7.625       7.328       7.020       6.659       6.380       6.210       6.030       5.845    
        5.638       5.447       5.308       5.205       5.128       5.060       5.019       4.978       4.907       4.859    
        4.808       4.710       4.580       4.432       4.258       4.073       3.792       3.440       3.049       2.606    
        2.204       1.794       1.491       1.187      0.7511      0.4440      0.3163      0.2308      0.1109       0.000    
  22    10.00       9.839       9.671       9.533       9.425       9.308       9.133       8.949       8.793       8.555    
        8.225       7.827       7.505       7.258       6.920       6.587       6.352       6.177       5.998       5.776    
        5.537       5.344       5.164       5.004       4.901       4.852       4.820       4.766       4.742       4.714    
        4.676       4.601       4.506       4.370       4.211       4.032       3.740       3.392       2.932       2.496    
        2.148       1.777       1.440      0.9902      0.6185      0.4450      0.3346      0.2226      8.8393E-02   0.000    
  23    10.00       9.803       9.639       9.524       9.406       9.232       9.034       8.889       8.692       8.444    
        8.108       7.754       7.505       7.193       6.830       6.540       6.341       6.180       5.978       5.711    
        5.457       5.229       4.991       4.707       4.455       4.407       4.481       4.516       4.564       4.579    
        4.563       4.514       4.432       4.324       4.172       3.986       3.715       3.281       2.798       2.439    
        2.107       1.684       1.200      0.8092      0.6033      0.4566      0.3341      0.2120      9.8702E-02   0.000    
  24    10.00       9.775       9.656       9.524       9.357       9.165       9.009       8.851       8.657       8.372    
        8.063       7.788       7.514       7.138       6.755       6.525       6.361       6.194       5.950       5.681    
        5.428       5.167       4.802       4.150       3.167       3.499       3.949       4.233       4.384       4.445    
        4.461       4.431       4.375       4.264       4.118       3.930       3.594       3.137       2.727       2.346    
        1.941       1.494       1.065      0.7722      0.6003      0.4540      0.3264      0.2473      0.1361       0.000    
  25    10.00       9.804       9.678       9.519       9.343       9.171       9.011       8.862       8.625       8.341    
        8.081       7.817       7.482       7.070       6.772       6.563       6.380       6.183       5.957       5.707    
        5.434       5.174       4.508       3.119     -3.4403E-02   2.525       3.494       3.979       4.236       4.352    
        4.384       4.370       4.313       4.185       4.031       3.801       3.453       3.014       2.643       2.231    
        1.764       1.342      0.9918      0.7643      0.6245      0.4882      0.3568      0.2629      0.1716       0.000    
  26    10.00       9.832       9.714       9.542       9.361       9.210       9.045       8.856       8.614       8.393    
        8.169       7.819       7.397       7.046       6.829       6.641       6.422       6.168       5.927       5.713    
        5.503       5.217       4.604       3.596       2.536       3.056       3.617       3.970       4.187       4.311    
        4.339       4.323       4.248       4.123       3.973       3.725       3.269       2.863       2.550       2.045    
        1.537       1.188      0.9819      0.8291      0.6805      0.5294      0.3926      0.2876      0.1717       0.000    
  27    10.00       9.869       9.725       9.579       9.417       9.243       9.079       8.897       8.680       8.470    
        8.171       7.758       7.393       7.108       6.917       6.705       6.419       6.139       5.944       5.773    
        5.597       5.303       4.843       4.287       3.696       3.716       3.914       4.098       4.237       4.309    
        4.320       4.294       4.220       4.092       3.890       3.500       3.067       2.747       2.264       1.766    
        1.401       1.173       1.023      0.8937      0.7568      0.5826      0.4196      0.3141      0.2111       0.000    
  28    10.00       9.881       9.759       9.620       9.473       9.309       9.139       8.956       8.753       8.510    
        8.145       7.771       7.454       7.181       6.982       6.769       6.524       6.250       5.990       5.821    
        5.664       5.453       5.147       4.731       4.358       4.190       4.201       4.285       4.320       4.340    
        4.323       4.281       4.192       4.009       3.707       3.297       2.927       2.487       2.007       1.676    
        1.409       1.221       1.072      0.9441      0.8034      0.6368      0.4754      0.3572      0.2178       0.000    
  29    10.00       9.886       9.771       9.667       9.525       9.375       9.213       9.030       8.815       8.491    
        8.132       7.806       7.506       7.280       7.052       6.822       6.598       6.379       6.128       5.908    
        5.740       5.562       5.351       5.096       4.756       4.574       4.504       4.473       4.452       4.404    
        4.341       4.253       4.135       3.886       3.520       3.147       2.758       2.312       1.945       1.703    
        1.485       1.277       1.115      0.9900      0.8528      0.6820      0.5157      0.3776      0.2201       0.000    
  30    10.00       9.896       9.801       9.709       9.587       9.449       9.304       9.102       8.834       8.505    
        8.136       7.805       7.554       7.332       7.108       6.884       6.698       6.509       6.283       6.049    
        5.847       5.683       5.501       5.317       5.099       4.900       4.817       4.688       4.606       4.488    
        4.352       4.200       4.026       3.758       3.454       3.097       2.693       2.281       2.010       1.787    
        1.540       1.336       1.180       1.030      0.8755      0.7242      0.5497      0.3936      0.2379       0.000    
  31    10.00       9.914       9.832       9.746       9.657       9.549       9.392       9.154       8.846       8.504    
        8.149       7.841       7.604       7.377       7.177       6.971       6.776       6.632       6.414       6.188    
        5.995       5.825       5.663       5.494       5.352       5.194       5.038       4.889       4.727       4.555    
        4.348       4.142       3.957       3.738       3.433       3.058       2.671       2.329       2.109       1.909    
        1.652       1.416       1.233       1.075      0.9211      0.7606      0.5855      0.4208      0.2316       0.000    
  32    10.00       9.927       9.865       9.790       9.704       9.607       9.451       9.183       8.895       8.584    
        8.210       7.891       7.655       7.442       7.241       7.068       6.895       6.714       6.537       6.323    
        6.119       5.934       5.775       5.616       5.486       5.375       5.203       5.023       4.807       4.573    
        4.350       4.144       3.941       3.728       3.436       3.096       2.770       2.469       2.233       2.008    
        1.769       1.522       1.327       1.141      0.9648      0.8194      0.6399      0.4218      0.2095       0.000    
  33    10.00       9.938       9.886       9.826       9.743       9.633       9.436       9.177       8.936       8.650    
        8.288       7.972       7.729       7.497       7.312       7.163       7.011       6.830       6.635       6.438    
        6.225       6.027       5.840       5.685       5.581       5.470       5.296       5.071       4.846       4.623    
        4.402       4.209       4.003       3.731       3.453       3.144       2.864       2.622       2.376       2.129    
        1.906       1.671       1.456       1.261       1.064      0.8913      0.6894      0.4317      0.2034       0.000    
  34    10.00       9.944       9.909       9.858       9.755       9.604       9.415       9.224       8.978       8.668    
        8.351       8.044       7.785       7.554       7.387       7.270       7.108       6.927       6.714       6.528    
        6.334       6.100       5.914       5.770       5.663       5.530       5.327       5.126       4.894       4.649    
        4.462       4.289       4.100       3.831       3.542       3.257       2.999       2.780       2.527       2.277    
        2.062       1.846       1.617       1.417       1.208       1.004      0.7467      0.4798      0.2530       0.000    
  35    10.00       9.954       9.914       9.849       9.723       9.564       9.427       9.265       9.039       8.708    
        8.371       8.088       7.828       7.628       7.485       7.353       7.187       6.987       6.782       6.575    
        6.392       6.184       5.994       5.859       5.743       5.611       5.395       5.151       4.904       4.672    
        4.531       4.367       4.163       3.956       3.707       3.402       3.139       2.960       2.701       2.419    
        2.216       1.999       1.781       1.584       1.350       1.122      0.8621      0.5755      0.2876       0.000    
  36    10.00       9.951       9.896       9.822       9.698       9.547       9.424       9.274       9.048       8.740    
        8.391       8.086       7.890       7.730       7.595       7.434       7.234       7.040       6.823       6.568    
        6.374       6.210       6.046       5.928       5.815       5.656       5.428       5.173       4.921       4.707    
        4.567       4.427       4.236       4.038       3.824       3.546       3.279       3.081       2.853       2.548    
        2.319       2.100       1.877       1.714       1.488       1.235      0.9754      0.6758      0.3437       0.000    
  37    10.00       9.936       9.876       9.796       9.670       9.533       9.395       9.250       9.044       8.714    
        8.361       8.110       7.987       7.836       7.660       7.499       7.273       7.039       6.774       6.521    
        6.369       6.238       6.084       5.962       5.830       5.643       5.430       5.166       4.941       4.776    
        4.628       4.472       4.275       4.101       3.877       3.611       3.399       3.205       2.951       2.648    
        2.373       2.159       1.981       1.798       1.584       1.348       1.099      0.7631      0.4135       0.000    
  38    10.00       9.930       9.851       9.766       9.651       9.516       9.364       9.213       8.995       8.690    
        8.420       8.217       8.061       7.924       7.729       7.484       7.230       6.951       6.668       6.503    
        6.384       6.226       6.081       5.976       5.834       5.629       5.372       5.134       4.998       4.863    
        4.698       4.521       4.330       4.151       3.931       3.684       3.493       3.295       2.993       2.675    
        2.436       2.237       2.056       1.873       1.682       1.454       1.197      0.8733      0.4532       0.000    
  39    10.00       9.911       9.832       9.748       9.634       9.485       9.321       9.162       8.963       8.717    
        8.506       8.355       8.180       7.988       7.707       7.393       7.081       6.783       6.610       6.502    
        6.345       6.177       6.072       5.974       5.841       5.605       5.347       5.184       5.062       4.921    
        4.745       4.574       4.380       4.187       3.999       3.793       3.572       3.342       3.029       2.715    
        2.464       2.264       2.123       1.977       1.770       1.537       1.277      0.9256      0.4533       0.000    
  40    10.00       9.896       9.819       9.735       9.620       9.464       9.296       9.135       8.967       8.762    
        8.588       8.458       8.245       7.940       7.586       7.235       6.919       6.714       6.598       6.471    
        6.298       6.153       6.058       5.943       5.788       5.599       5.422       5.257       5.111       4.979    
        4.816       4.624       4.425       4.242       4.067       3.858       3.620       3.388       3.048       2.705    
        2.478       2.311       2.164       2.038       1.828       1.569       1.331      0.9617      0.4749       0.000    
  41    10.00       9.904       9.814       9.721       9.594       9.453       9.305       9.162       9.000       8.818    
        8.653       8.496       8.211       7.825       7.434       7.116       6.867       6.692       6.573       6.429    
        6.255       6.131       6.027       5.904       5.767       5.628       5.497       5.338       5.164       5.011    
        4.864       4.680       4.478       4.310       4.127       3.922       3.679       3.355       2.978       2.713    
        2.528       2.355       2.219       2.061       1.839       1.583       1.371       1.021      0.5228       0.000    
  42    10.00       9.907       9.807       9.721       9.611       9.479       9.332       9.172       9.028       8.888    
        8.692       8.412       8.055       7.658       7.306       7.061       6.846       6.681       6.544       6.372    
        6.212       6.097       5.991       5.903       5.785       5.682       5.559       5.378       5.193       5.055    
        4.924       4.725       4.507       4.350       4.193       3.963       3.650       3.262       2.927       2.725    
        2.577       2.430       2.261       2.056       1.826       1.620       1.406       1.063      0.5469       0.000    
  43    10.00       9.908       9.816       9.728       9.641       9.524       9.377       9.220       9.063       8.864    
        8.585       8.264       7.899       7.516       7.243       7.038       6.835       6.664       6.499       6.328    
        6.179       6.071       5.992       5.923       5.819       5.706       5.588       5.411       5.244       5.131    
        4.965       4.746       4.541       4.385       4.204       3.924       3.556       3.182       2.948       2.789    
        2.632       2.472       2.267       2.046       1.835       1.636       1.444       1.060      0.4774       0.000    
  44    10.00       9.903       9.819       9.743       9.646       9.557       9.432       9.241       9.031       8.756    
        8.474       8.136       7.737       7.459       7.248       7.021       6.800       6.606       6.427       6.276    
        6.168       6.082       6.007       5.935       5.846       5.732       5.592       5.452       5.323       5.179    
        5.020       4.822       4.590       4.371       4.158       3.872       3.488       3.164       2.977       2.822    
        2.672       2.496       2.290       2.092       1.872       1.651       1.401      0.9074      0.4011       0.000    
  45    10.00       9.902       9.834       9.746       9.656       9.575       9.395       9.177       8.930       8.660    
        8.422       8.018       7.647       7.439       7.224       6.977       6.728       6.530       6.373       6.263    
        6.186       6.110       6.031       5.945       5.849       5.744       5.627       5.508       5.402       5.256    
        5.064       4.853       4.618       4.353       4.111       3.800       3.439       3.184       3.030       2.875    
        2.680       2.476       2.296       2.117       1.925       1.686       1.263      0.7608      0.3853       0.000    
  46    10.00       9.919       9.846       9.753       9.653       9.503       9.313       9.133       8.907       8.642    
        8.301       7.929       7.631       7.371       7.152       6.908       6.660       6.505       6.387       6.286    
        6.215       6.144       6.051       5.948       5.853       5.760       5.664       5.559       5.453       5.318    
        5.140       4.919       4.658       4.358       4.022       3.687       3.424       3.250       3.078       2.900    
        2.675       2.463       2.283       2.140       1.933       1.601       1.133      0.7167      0.3641       0.000    
  47    10.00       9.937       9.869       9.772       9.600       9.418       9.256       9.102       8.899       8.569    
        8.201       7.856       7.569       7.351       7.116       6.846       6.632       6.494       6.400       6.317    
        6.241       6.159       6.067       5.966       5.872       5.791       5.706       5.602       5.479       5.346    
        5.189       4.992       4.657       4.259       3.943       3.696       3.467       3.317       3.160       2.912    
        2.644       2.421       2.254       2.137       1.878       1.481       1.052      0.6897      0.3540       0.000    
  48    10.00       9.945       9.873       9.728       9.554       9.403       9.230       9.074       8.858       8.511    
        8.110       7.797       7.564       7.304       7.030       6.789       6.628       6.493       6.403       6.342    
        6.266       6.167       6.066       5.978       5.903       5.834       5.753       5.637       5.493       5.337    
        5.175       4.950       4.603       4.277       4.000       3.754       3.540       3.371       3.167       2.870    
        2.588       2.408       2.268       2.049       1.703       1.348       1.004      0.6947      0.3737       0.000    
  49    10.00       9.942       9.839       9.709       9.567       9.392       9.217       9.043       8.775       8.408    
        8.062       7.769       7.489       7.242       7.032       6.804       6.596       6.474       6.415       6.355    
        6.284       6.173       6.061       5.988       5.926       5.872       5.781       5.641       5.477       5.329    
        5.158       4.884       4.590       4.371       4.118       3.830       3.570       3.365       3.131       2.814    
        2.586       2.429       2.220       1.889       1.582       1.292      0.9930      0.6947      0.3726       0.000    
  50    10.00       9.934       9.827       9.695       9.566       9.402       9.207       8.989       8.708       8.417    
        8.056       7.689       7.429       7.232       7.054       6.798       6.567       6.477       6.423       6.364    
        6.292       6.178       6.063       5.992       5.940       5.890       5.786       5.626       5.461       5.319    
        5.144       4.862       4.635       4.438       4.173       3.887       3.615       3.335       3.014       2.749    
        2.631       2.453       2.131       1.799       1.570       1.290       1.007      0.6804      0.3034       0.000    

 HEAD WILL BE SAVED ON UNIT   51 AT END OF TIME STEP  59, STRESS PERIOD    2

 DRAWDOWN WILL BE SAVED ON UNIT   52 AT END OF TIME STEP  59, STRESS PERIOD    2
1
  VOLUMETRIC BUDGET FOR ENTIRE MODEL AT END OF TIME STEP 59 IN STRESS PERIOD   2
  ------------------------------------------------------------------------------

     CUMULATIVE VOLUMES      L**3       RATES FOR THIS TIME STEP      L**3/T
     ------------------                 ------------------------

           IN:                                      IN:
           ---                                      ---
             STORAGE =       28606.9609               STORAGE =         446.4207
       CONSTANT HEAD =       36607.6328         CONSTANT HEAD =         642.3147
               WELLS =           0.0000                 WELLS =           0.0000

            TOTAL IN =       65214.5938              TOTAL IN =        1088.7355

          OUT:                                     OUT:
          ----                                     ----
             STORAGE =       9.4320E-03               STORAGE =           0.0000
       CONSTANT HEAD =       35714.5742         CONSTANT HEAD =         588.7357
               WELLS =       29500.0000                 WELLS =         500.0000

           TOTAL OUT =       65214.5820             TOTAL OUT =        1088.7357

            IN - OUT =       1.1719E-02              IN - OUT =      -2.4414E-04

 PERCENT DISCREPANCY =           0.00     PERCENT DISCREPANCY =           0.00






          TIME SUMMARY AT END OF TIME STEP  59 IN STRESS PERIOD    2
                    SECONDS     MINUTES      HOURS       DAYS        YEARS
                    -----------------------------------------------------------
   TIME STEP LENGTH  86400.      1440.0      24.000      1.0000     2.73785E-03
 STRESS PERIOD TIME 5.09760E+06  84960.      1416.0      59.000     0.16153    
         TOTAL TIME 5.18400E+06  86400.      1440.0      60.000     0.16427    
1
 
 SOLVING FOR HEAD 

 OUTPUT CONTROL FOR STRESS PERIOD    2   TIME STEP  60
    SAVE HEAD FOR ALL LAYERS
    SAVE DRAWDOWN FOR ALL LAYERS
    SAVE BUDGET
    PRINT HEAD FOR ALL LAYERS
    PRINT BUDGET
 UBDSV1 SAVING "         STORAGE" ON UNIT  53 AT TIME STEP 60, STRESS PERIOD   2
 UBDSV2 SAVING "   CONSTANT HEAD" ON UNIT  53 AT TIME STEP 60, STRESS PERIOD   2
 UBDSV1 SAVING "FLOW RIGHT FACE " ON UNIT  53 AT TIME STEP 60, STRESS PERIOD   2
 UBDSV1 SAVING "FLOW FRONT FACE " ON UNIT  53 AT TIME STEP 60, STRESS PERIOD   2
1
              HEAD IN LAYER   1 AT END OF TIME STEP  60 IN STRESS PERIOD    2
  ---------------------------------------------------------------------------

            1           2           3           4           5           6           7           8           9          10
           11          12          13          14          15          16          17          18          19          20
           21          22          23          24          25          26          27          28          29          30
           31          32          33          34          35          36          37          38          39          40
           41          42          43          44          45          46          47          48          49          50
 ........................................................................................................................
   1    10.00       9.956       9.894       9.823       9.754       9.676       9.602       9.529       9.436       9.346    
        9.275       9.207       9.136       9.068       8.958       8.825       8.676       8.559       8.499       8.429    
        8.346       8.279       8.214       8.139       8.040       7.844       7.623       7.469       7.318       7.177    
        6.993       6.698       6.320       5.901       5.466       5.004       4.546       4.164       3.667       3.124    
        2.680       2.255       1.783       1.388       1.145      0.9387      0.7756      0.6576      0.4414       0.000    
   2    10.00       9.955       9.899       9.828       9.757       9.688       9.615       9.518       9.417       9.343    
        9.282       9.223       9.165       9.080       8.953       8.814       8.674       8.559       8.497       8.418    
        8.335       8.285       8.232       8.154       8.028       7.836       7.635       7.476       7.324       7.187    
        6.981       6.672       6.276       5.798       5.334       4.887       4.490       4.122       3.615       3.091    
        2.645       2.167       1.737       1.427       1.199       1.022      0.8198      0.6400      0.3571       0.000    
   3    10.00       9.949       9.893       9.830       9.768       9.698       9.603       9.501       9.430       9.363    
        9.295       9.242       9.190       9.108       8.979       8.807       8.654       8.561       8.488       8.408    
        8.340       8.288       8.234       8.129       7.991       7.820       7.646       7.521       7.344       7.164    
        6.905       6.539       6.085       5.622       5.211       4.795       4.407       4.010       3.484       2.999    
        2.617       2.177       1.785       1.501       1.275       1.092      0.8528      0.5719      0.2593       0.000    
   4    10.00       9.949       9.894       9.832       9.762       9.681       9.584       9.506       9.444       9.375    
        9.316       9.271       9.213       9.120       8.994       8.811       8.653       8.565       8.484       8.412    
        8.339       8.274       8.204       8.094       7.958       7.804       7.646       7.492       7.334       7.130    
        6.805       6.318       5.836       5.484       5.144       4.715       4.248       3.784       3.363       2.998    
        2.641       2.235       1.866       1.611       1.357       1.124      0.8284      0.5143      0.2464       0.000    
   5    10.00       9.946       9.890       9.820       9.750       9.674       9.586       9.519       9.455       9.391    
        9.339       9.296       9.219       9.111       8.971       8.805       8.670       8.574       8.493       8.397    
        8.309       8.238       8.154       8.046       7.924       7.766       7.609       7.466       7.308       7.058    
        6.589       6.042       5.656       5.382       5.045       4.582       4.101       3.680       3.367       3.037    
        2.689       2.315       1.951       1.715       1.442       1.106      0.7540      0.4586      0.2307       0.000    
   6    10.00       9.938       9.872       9.814       9.750       9.667       9.593       9.535       9.468       9.408    
        9.359       9.305       9.209       9.087       8.965       8.825       8.689       8.578       8.471       8.359    
        8.270       8.187       8.113       8.016       7.860       7.705       7.578       7.433       7.212       6.832    
        6.312       5.816       5.495       5.259       4.954       4.496       4.019       3.667       3.403       3.106    
        2.789       2.462       2.090       1.774       1.413       1.044      0.6658      0.3957      0.2178       0.000    
   7    10.00       9.926       9.862       9.808       9.741       9.672       9.606       9.552       9.490       9.430    
        9.370       9.289       9.183       9.068       8.952       8.843       8.700       8.548       8.424       8.315    
        8.221       8.141       8.077       7.955       7.795       7.664       7.535       7.338       6.980       6.492    
        5.997       5.596       5.380       5.170       4.817       4.387       4.068       3.729       3.442       3.250    
        2.951       2.601       2.165       1.714       1.310      0.9060      0.5734      0.3985      0.2052       0.000    
   8    10.00       9.925       9.867       9.806       9.739       9.678       9.620       9.565       9.508       9.451    
        9.371       9.268       9.164       9.054       8.947       8.823       8.644       8.484       8.383       8.277    
        8.173       8.104       8.009       7.876       7.737       7.600       7.381       7.074       6.621       6.192    
        5.823       5.517       5.320       5.080       4.702       4.349       4.061       3.812       3.592       3.372    
        3.081       2.642       2.107       1.626       1.205      0.8480      0.6069      0.3902      0.1871       0.000    
   9    10.00       9.937       9.867       9.799       9.750       9.699       9.641       9.582       9.519       9.458    
        9.365       9.248       9.134       9.025       8.910       8.763       8.589       8.442       8.333       8.224    
        8.131       8.043       7.913       7.787       7.656       7.486       7.169       6.757       6.333       6.020    
        5.718       5.466       5.250       4.951       4.602       4.307       4.090       3.907       3.712       3.471    
        3.123       2.645       2.100       1.622       1.213      0.8665      0.6122      0.3936      0.2013       0.000    
  10    10.00       9.934       9.860       9.805       9.759       9.710       9.658       9.607       9.534       9.443    
        9.331       9.207       9.098       8.996       8.877       8.696       8.513       8.385       8.284       8.183    
        8.096       7.972       7.829       7.686       7.533       7.285       6.877       6.450       6.090       5.840    
        5.646       5.434       5.172       4.869       4.546       4.300       4.136       3.979       3.768       3.492    
        3.094       2.599       2.102       1.695       1.313      0.9532      0.6313      0.4180      0.2247       0.000    
  11    10.00       9.921       9.860       9.815       9.769       9.727       9.679       9.608       9.508       9.406    
        9.293       9.173       9.072       8.948       8.786       8.613       8.462       8.348       8.256       8.153    
        8.023       7.864       7.669       7.506       7.249       6.902       6.555       6.241       5.941       5.756    
        5.606       5.336       5.051       4.801       4.555       4.367       4.198       3.997       3.738       3.404    
        3.030       2.649       2.173       1.773       1.410       1.054      0.7091      0.4105      0.1722       0.000    
  12    10.00       9.923       9.867       9.819       9.781       9.737       9.682       9.582       9.466       9.368    
        9.263       9.137       9.013       8.866       8.723       8.564       8.419       8.320       8.218       8.075    
        7.857       7.620       7.390       7.160       6.818       6.556       6.360       6.054       5.806       5.668    
        5.498       5.247       5.013       4.782       4.607       4.429       4.216       3.972       3.657       3.323    
        3.008       2.664       2.206       1.814       1.473       1.100      0.7458      0.3871      0.1285       0.000    
  13    10.00       9.938       9.885       9.834       9.788       9.736       9.648       9.534       9.424       9.323    
        9.206       9.082       8.954       8.800       8.643       8.493       8.387       8.264       8.129       7.846    
        7.516       7.265       7.011       6.705       6.443       6.317       6.097       5.828       5.694       5.567    
        5.367       5.152       4.967       4.797       4.647       4.482       4.230       3.902       3.600       3.288    
        2.988       2.633       2.142       1.778       1.486       1.091      0.6850      0.3339      0.1022       0.000    
  14    10.00       9.952       9.907       9.853       9.789       9.703       9.588       9.474       9.375       9.264    
        9.143       9.027       8.882       8.720       8.581       8.451       8.289       8.130       7.859       7.439    
        7.121       6.879       6.541       6.302       6.180       6.067       5.850       5.684       5.554       5.423    
        5.250       5.096       4.966       4.821       4.660       4.498       4.213       3.858       3.548       3.227    
        2.922       2.482       2.016       1.730       1.398       1.043      0.6851      0.3088      8.7968E-02   0.000    
  15    10.00       9.961       9.914       9.854       9.778       9.653       9.514       9.413       9.320       9.210    
        9.115       8.996       8.809       8.625       8.496       8.293       8.088       7.920       7.507       7.047    
        6.761       6.437       6.153       6.064       6.000       5.857       5.673       5.518       5.418       5.317    
        5.186       5.075       4.969       4.841       4.683       4.487       4.157       3.765       3.441       3.150    
        2.823       2.381       2.016       1.660       1.266      0.9537      0.6116      0.2829      9.5706E-02   0.000    
  16    10.00       9.968       9.917       9.843       9.731       9.582       9.458       9.377       9.295       9.185    
        9.070       8.895       8.662       8.483       8.298       8.064       7.926       7.586       7.005       6.604    
        6.353       6.076       5.975       5.923       5.805       5.622       5.478       5.402       5.354       5.267    
        5.158       5.057       4.968       4.839       4.650       4.386       4.010       3.675       3.421       3.117    
        2.740       2.306       1.914       1.528       1.190      0.8439      0.5482      0.2854      0.1019       0.000    
  17    10.00       9.964       9.902       9.804       9.677       9.523       9.412       9.342       9.244       9.127    
        8.922       8.676       8.480       8.298       8.059       7.826       7.537       6.995       6.512       6.262    
        6.065       5.919       5.849       5.727       5.545       5.415       5.373       5.350       5.302       5.215    
        5.120       5.032       4.938       4.809       4.538       4.194       3.906       3.691       3.447       3.082    
        2.606       2.183       1.820       1.458       1.066      0.7036      0.4669      0.2590      0.1079       0.000    
  18    10.00       9.948       9.870       9.755       9.588       9.459       9.381       9.276       9.157       8.981    
        8.721       8.516       8.332       8.054       7.742       7.420       7.016       6.545       6.251       6.059    
        5.911       5.784       5.670       5.506       5.381       5.341       5.324       5.300       5.239       5.156    
        5.076       4.988       4.869       4.670       4.393       4.118       3.895       3.720       3.414       2.966    
        2.509       2.069       1.704       1.364      0.9885      0.6486      0.3946      0.2163      0.1010       0.000    
  19    10.00       9.931       9.840       9.673       9.507       9.431       9.333       9.197       9.052       8.852    
        8.621       8.418       8.123       7.727       7.402       7.086       6.653       6.271       6.085       5.960    
        5.804       5.643       5.514       5.377       5.310       5.291       5.268       5.223       5.152       5.081    
        5.004       4.908       4.752       4.551       4.328       4.098       3.909       3.685       3.252       2.812    
        2.451       2.002       1.607       1.276      0.9077      0.5842      0.3549      0.2053      0.1028       0.000    
  20    10.00       9.911       9.772       9.598       9.476       9.389       9.280       9.134       8.961       8.776    
        8.534       8.232       7.832       7.469       7.181       6.803       6.411       6.216       6.059       5.889    
        5.719       5.551       5.393       5.292       5.247       5.210       5.158       5.112       5.044       4.981    
        4.907       4.812       4.658       4.484       4.286       4.093       3.894       3.546       3.094       2.721    
        2.322       1.886       1.536       1.206      0.8628      0.5249      0.3083      0.2071      0.1046       0.000    
  21    10.00       9.859       9.716       9.574       9.446       9.348       9.228       9.043       8.867       8.687    
        8.372       7.991       7.616       7.317       7.009       6.647       6.367       6.197       6.016       5.831    
        5.624       5.433       5.294       5.191       5.114       5.047       5.005       4.964       4.893       4.845    
        4.795       4.696       4.568       4.420       4.247       4.063       3.783       3.432       3.042       2.601    
        2.200       1.791       1.488       1.185      0.7499      0.4433      0.3158      0.2305      0.1108       0.000    
  22    10.00       9.838       9.670       9.531       9.423       9.305       9.129       8.944       8.787       8.549    
        8.217       7.818       7.495       7.247       6.909       6.575       6.339       6.164       5.985       5.762    
        5.523       5.330       5.149       4.990       4.887       4.838       4.806       4.751       4.728       4.700    
        4.662       4.588       4.493       4.358       4.199       4.021       3.731       3.383       2.925       2.490    
        2.144       1.774       1.438      0.9886      0.6176      0.4444      0.3342      0.2223      8.8274E-02   0.000    
  23    10.00       9.802       9.637       9.522       9.403       9.228       9.029       8.884       8.686       8.437    
        8.099       7.745       7.495       7.182       6.818       6.527       6.328       6.167       5.965       5.697    
        5.443       5.215       4.976       4.693       4.441       4.393       4.466       4.502       4.549       4.565    
        4.549       4.500       4.418       4.311       4.160       3.975       3.705       3.273       2.792       2.434    
        2.102       1.681       1.198      0.8080      0.6024      0.4560      0.3336      0.2117      9.8574E-02   0.000    
  24    10.00       9.774       9.655       9.522       9.354       9.161       9.004       8.846       8.651       8.365    
        8.054       7.779       7.504       7.127       6.742       6.512       6.348       6.180       5.937       5.667    
        5.414       5.153       4.787       4.135       3.152       3.483       3.934       4.218       4.369       4.431    
        4.447       4.417       4.361       4.251       4.106       3.919       3.585       3.129       2.721       2.342    
        1.938       1.491       1.063      0.7711      0.5995      0.4534      0.3260      0.2470      0.1360       0.000    
  25    10.00       9.803       9.677       9.517       9.340       9.167       9.007       8.857       8.618       8.334    
        8.073       7.808       7.472       7.059       6.760       6.550       6.367       6.170       5.943       5.693    
        5.420       5.159       4.494       3.104     -5.0872E-02   2.510       3.478       3.964       4.221       4.337    
        4.369       4.356       4.299       4.172       4.019       3.790       3.444       3.006       2.637       2.227    
        1.761       1.340      0.9904      0.7633      0.6237      0.4876      0.3564      0.2626      0.1714       0.000    
  26    10.00       9.831       9.712       9.540       9.358       9.207       9.041       8.851       8.608       8.386    
        8.162       7.810       7.386       7.035       6.817       6.628       6.410       6.154       5.914       5.699    
        5.489       5.203       4.589       3.580       2.520       3.040       3.601       3.954       4.172       4.296    
        4.325       4.309       4.234       4.110       3.961       3.714       3.260       2.856       2.544       2.041    
        1.535       1.186      0.9806      0.8280      0.6796      0.5288      0.3921      0.2872      0.1715       0.000    
  27    10.00       9.868       9.724       9.577       9.415       9.240       9.075       8.892       8.675       8.463    
        8.163       7.749       7.383       7.097       6.905       6.693       6.406       6.126       5.930       5.759    
        5.584       5.288       4.828       4.272       3.680       3.700       3.898       4.083       4.222       4.294    
        4.306       4.280       4.207       4.080       3.878       3.490       3.060       2.741       2.259       1.763    
        1.399       1.172       1.022      0.8926      0.7559      0.5819      0.4191      0.3137      0.2108       0.000    
  28    10.00       9.880       9.758       9.618       9.471       9.306       9.135       8.952       8.747       8.504    
        8.137       7.762       7.444       7.170       6.971       6.757       6.512       6.237       5.977       5.807    
        5.650       5.439       5.132       4.716       4.342       4.175       4.186       4.270       4.304       4.325    
        4.309       4.267       4.179       3.997       3.697       3.289       2.920       2.482       2.004       1.674    
        1.408       1.220       1.071      0.9430      0.8025      0.6360      0.4748      0.3568      0.2176       0.000    
  29    10.00       9.886       9.770       9.665       9.523       9.373       9.209       9.025       8.809       8.484    
        8.125       7.797       7.496       7.269       7.041       6.810       6.586       6.366       6.115       5.895    
        5.726       5.548       5.337       5.081       4.742       4.559       4.489       4.458       4.437       4.389    
        4.328       4.240       4.123       3.876       3.512       3.140       2.752       2.308       1.942       1.701    
        1.483       1.276       1.114      0.9888      0.8518      0.6812      0.5151      0.3772      0.2199       0.000    
  30    10.00       9.896       9.800       9.708       9.585       9.447       9.302       9.098       8.829       8.499    
        8.129       7.796       7.545       7.322       7.097       6.873       6.686       6.497       6.271       6.036    
        5.834       5.670       5.487       5.303       5.084       4.885       4.802       4.674       4.592       4.475    
        4.339       4.189       4.015       3.749       3.447       3.091       2.689       2.277       2.007       1.785    
        1.538       1.334       1.178       1.029      0.8746      0.7234      0.5491      0.3932      0.2376       0.000    
  31    10.00       9.914       9.831       9.745       9.656       9.547       9.389       9.150       8.841       8.498    
        8.142       7.833       7.595       7.367       7.167       6.960       6.764       6.620       6.402       6.176    
        5.982       5.811       5.650       5.480       5.338       5.180       5.024       4.876       4.714       4.543    
        4.337       4.132       3.949       3.731       3.427       3.053       2.667       2.326       2.106       1.906    
        1.650       1.414       1.232       1.074      0.9201      0.7599      0.5850      0.4204      0.2314       0.000    
  32    10.00       9.927       9.864       9.789       9.703       9.605       9.449       9.180       8.890       8.579    
        8.204       7.883       7.646       7.432       7.231       7.057       6.884       6.702       6.526       6.311    
        6.107       5.921       5.762       5.603       5.473       5.362       5.189       5.010       4.795       4.562    
        4.341       4.135       3.934       3.721       3.430       3.091       2.766       2.466       2.231       2.006    
        1.767       1.521       1.325       1.140      0.9639      0.8186      0.6394      0.4214      0.2093       0.000    
  33    10.00       9.937       9.886       9.826       9.742       9.631       9.434       9.174       8.932       8.645    
        8.282       7.965       7.721       7.489       7.302       7.153       7.000       6.820       6.624       6.427    
        6.213       6.014       5.828       5.673       5.568       5.457       5.284       5.060       4.836       4.614    
        4.394       4.202       3.996       3.725       3.448       3.140       2.861       2.618       2.373       2.127    
        1.904       1.670       1.455       1.260       1.063      0.8906      0.6889      0.4314      0.2032       0.000    
  34    10.00       9.944       9.909       9.857       9.754       9.603       9.413       9.222       8.974       8.664    
        8.345       8.037       7.777       7.546       7.379       7.261       7.099       6.917       6.704       6.517    
        6.323       6.089       5.902       5.759       5.652       5.519       5.317       5.116       4.885       4.641    
        4.456       4.282       4.094       3.826       3.538       3.253       2.996       2.778       2.524       2.275    
        2.061       1.845       1.616       1.416       1.207       1.004      0.7463      0.4796      0.2529       0.000    
  35    10.00       9.954       9.914       9.849       9.722       9.563       9.425       9.262       9.036       8.703    
        8.366       8.082       7.821       7.621       7.477       7.345       7.178       6.978       6.772       6.565    
        6.382       6.174       5.984       5.849       5.732       5.601       5.385       5.142       4.897       4.666    
        4.525       4.361       4.158       3.952       3.703       3.399       3.136       2.957       2.699       2.417    
        2.214       1.998       1.780       1.583       1.349       1.122      0.8618      0.5753      0.2875       0.000    
  36    10.00       9.951       9.896       9.822       9.697       9.546       9.422       9.271       9.045       8.737    
        8.386       8.080       7.883       7.723       7.588       7.426       7.226       7.032       6.814       6.559    
        6.366       6.201       6.037       5.919       5.806       5.648       5.420       5.166       4.915       4.702    
        4.562       4.423       4.232       4.035       3.821       3.543       3.277       3.079       2.851       2.546    
        2.318       2.099       1.876       1.714       1.488       1.235      0.9751      0.6756      0.3436       0.000    
  37    10.00       9.936       9.875       9.795       9.669       9.531       9.393       9.248       9.041       8.710    
        8.357       8.104       7.981       7.829       7.653       7.491       7.265       7.031       6.767       6.513    
        6.361       6.230       6.076       5.954       5.822       5.636       5.423       5.161       4.937       4.772    
        4.623       4.469       4.272       4.098       3.874       3.608       3.397       3.203       2.949       2.646    
        2.372       2.158       1.980       1.798       1.583       1.348       1.099      0.7629      0.4134       0.000    
  38    10.00       9.930       9.851       9.766       9.650       9.515       9.363       9.211       8.993       8.687    
        8.416       8.212       8.056       7.919       7.723       7.478       7.224       6.944       6.662       6.496    
        6.377       6.219       6.075       5.969       5.828       5.623       5.367       5.130       4.995       4.859    
        4.694       4.518       4.327       4.148       3.928       3.682       3.491       3.293       2.991       2.674    
        2.435       2.236       2.055       1.872       1.681       1.454       1.196      0.8731      0.4530       0.000    
  39    10.00       9.911       9.832       9.747       9.633       9.483       9.319       9.160       8.961       8.714    
        8.503       8.351       8.176       7.983       7.702       7.387       7.075       6.778       6.605       6.497    
        6.339       6.172       6.067       5.968       5.836       5.601       5.343       5.181       5.059       4.918    
        4.742       4.572       4.377       4.184       3.996       3.791       3.570       3.340       3.028       2.714    
        2.463       2.263       2.122       1.977       1.769       1.537       1.277      0.9253      0.4532       0.000    
  40    10.00       9.896       9.819       9.734       9.620       9.463       9.295       9.134       8.965       8.760    
        8.585       8.455       8.241       7.936       7.582       7.231       6.915       6.710       6.594       6.466    
        6.294       6.149       6.054       5.939       5.785       5.595       5.419       5.254       5.108       4.976    
        4.813       4.622       4.423       4.240       4.065       3.856       3.619       3.387       3.047       2.704    
        2.477       2.310       2.163       2.037       1.828       1.569       1.330      0.9615      0.4748       0.000    
  41    10.00       9.904       9.813       9.720       9.593       9.452       9.304       9.160       8.998       8.815    
        8.650       8.493       8.207       7.821       7.430       7.112       6.863       6.688       6.569       6.425    
        6.251       6.127       6.023       5.901       5.764       5.625       5.494       5.335       5.161       5.008    
        4.861       4.678       4.476       4.308       4.125       3.920       3.677       3.353       2.977       2.713    
        2.528       2.354       2.218       2.060       1.838       1.582       1.371       1.020      0.5226       0.000    
  42    10.00       9.907       9.807       9.721       9.610       9.478       9.331       9.171       9.026       8.886    
        8.689       8.410       8.053       7.655       7.304       7.058       6.843       6.678       6.540       6.369    
        6.209       6.094       5.989       5.900       5.782       5.679       5.557       5.376       5.190       5.053    
        4.921       4.723       4.505       4.348       4.191       3.961       3.648       3.261       2.926       2.724    
        2.577       2.429       2.261       2.056       1.825       1.619       1.406       1.063      0.5468       0.000    
  43    10.00       9.908       9.816       9.728       9.641       9.523       9.376       9.218       9.061       8.862    
        8.583       8.262       7.896       7.513       7.241       7.035       6.832       6.661       6.496       6.326    
        6.176       6.069       5.989       5.920       5.817       5.704       5.585       5.409       5.242       5.129    
        4.963       4.744       4.539       4.383       4.203       3.922       3.555       3.181       2.948       2.788    
        2.631       2.472       2.267       2.045       1.835       1.635       1.444       1.059      0.4773       0.000    
  44    10.00       9.902       9.819       9.742       9.646       9.556       9.432       9.240       9.030       8.755    
        8.472       8.135       7.735       7.457       7.246       7.019       6.798       6.604       6.425       6.273    
        6.166       6.080       6.005       5.933       5.844       5.729       5.589       5.450       5.320       5.177    
        5.018       4.820       4.589       4.369       4.157       3.870       3.487       3.163       2.976       2.822    
        2.671       2.495       2.289       2.092       1.872       1.650       1.400      0.9072      0.4010       0.000    
  45    10.00       9.902       9.833       9.746       9.655       9.575       9.394       9.177       8.929       8.659    
        8.421       8.017       7.645       7.437       7.222       6.975       6.726       6.528       6.370       6.261    
        6.184       6.107       6.029       5.942       5.847       5.742       5.625       5.506       5.400       5.254    
        5.062       4.851       4.616       4.351       4.110       3.799       3.438       3.183       3.029       2.874    
        2.679       2.476       2.295       2.117       1.924       1.686       1.263      0.7606      0.3853       0.000    
  46    10.00       9.919       9.846       9.753       9.653       9.502       9.312       9.132       8.906       8.641    
        8.299       7.928       7.629       7.370       7.150       6.906       6.658       6.503       6.385       6.284    
        6.212       6.142       6.049       5.946       5.851       5.758       5.662       5.557       5.450       5.316    
        5.138       4.917       4.657       4.357       4.021       3.686       3.423       3.249       3.077       2.899    
        2.675       2.462       2.283       2.139       1.933       1.600       1.132      0.7165      0.3641       0.000    
  47    10.00       9.937       9.869       9.772       9.600       9.418       9.255       9.101       8.899       8.568    
        8.200       7.854       7.567       7.349       7.114       6.844       6.630       6.492       6.398       6.315    
        6.239       6.157       6.065       5.964       5.870       5.789       5.704       5.599       5.477       5.344    
        5.187       4.991       4.655       4.258       3.942       3.695       3.466       3.316       3.159       2.911    
        2.644       2.421       2.253       2.136       1.878       1.481       1.052      0.6896      0.3540       0.000    
  48    10.00       9.945       9.873       9.728       9.554       9.403       9.229       9.074       8.858       8.510    
        8.108       7.795       7.563       7.303       7.029       6.787       6.626       6.491       6.401       6.340    
        6.264       6.165       6.064       5.976       5.901       5.832       5.751       5.635       5.491       5.336    
        5.173       4.949       4.602       4.276       3.999       3.753       3.539       3.370       3.166       2.870    
        2.587       2.408       2.268       2.049       1.703       1.348       1.004      0.6946      0.3737       0.000    
  49    10.00       9.942       9.839       9.709       9.567       9.391       9.217       9.042       8.775       8.407    
        8.061       7.768       7.487       7.241       7.030       6.802       6.594       6.472       6.413       6.353    
        6.282       6.171       6.059       5.986       5.924       5.870       5.779       5.639       5.475       5.327    
        5.156       4.882       4.589       4.370       4.116       3.829       3.569       3.364       3.130       2.814    
        2.585       2.428       2.219       1.889       1.582       1.292      0.9928      0.6946      0.3725       0.000    
  50    10.00       9.934       9.827       9.695       9.566       9.402       9.207       8.988       8.707       8.416    
        8.055       7.688       7.428       7.231       7.053       6.796       6.566       6.475       6.421       6.362    
        6.290       6.176       6.061       5.990       5.938       5.888       5.784       5.624       5.459       5.318    
        5.143       4.860       4.633       4.437       4.172       3.886       3.615       3.334       3.014       2.748    
        2.631       2.452       2.130       1.799       1.570       1.289       1.007      0.6803      0.3033       0.000    

 HEAD WILL BE SAVED ON UNIT   51 AT END OF TIME STEP  60, STRESS PERIOD    2

 DRAWDOWN WILL BE SAVED ON UNIT   52 AT END OF TIME STEP  60, STRESS PERIOD    2
1
  VOLUMETRIC BUDGET FOR ENTIRE MODEL AT END OF TIME STEP 60 IN STRESS PERIOD   2
  ------------------------------------------------------------------------------

     CUMULATIVE VOLUMES      L**3       RATES FOR THIS TIME STEP      L**3/T
     ------------------                 ------------------------

           IN:                                      IN:
           ---                                      ---
             STORAGE =       29051.3711               STORAGE =         444.4094
       CONSTANT HEAD =       37251.5117         CONSTANT HEAD =         643.8793
               WELLS =           0.0000                 WELLS =           0.0000

            TOTAL IN =       66302.8828              TOTAL IN =        1088.2887

          OUT:                                     OUT:
          ----                                     ----
             STORAGE =       9.4320E-03               STORAGE =           0.0000
       CONSTANT HEAD =       36302.8633         CONSTANT HEAD =         588.2888
               WELLS =       30000.0000                 WELLS =         500.0000

           TOTAL OUT =       66302.8750             TOTAL OUT =        1088.2888

            IN - OUT =       7.8125E-03              IN - OUT =      -1.2207E-04

 PERCENT DISCREPANCY =           0.00     PERCENT DISCREPANCY =           0.00






          TIME SUMMARY AT END OF TIME STEP  60 IN STRESS PERIOD    2
                    SECONDS     MINUTES      HOURS       DAYS        YEARS
                    -----------------------------------------------------------
   TIME STEP LENGTH  86400.      1440.0      24.000      1.0000     2.73785E-03
 STRESS PERIOD TIME 5.18400E+06  86400.      1440.0      60.000     0.16427    
         TOTAL TIME 5.27040E+06  87840.      1464.0      61.000     0.16701    
1
 
 SOLVING FOR HEAD 

 OUTPUT CONTROL FOR STRESS PERIOD    2   TIME STEP  61
    SAVE HEAD FOR ALL LAYERS
    SAVE DRAWDOWN FOR ALL LAYERS
    SAVE BUDGET
    PRINT HEAD FOR ALL LAYERS
    PRINT BUDGET
 UBDSV1 SAVING "         STORAGE" ON UNIT  53 AT TIME STEP 61, STRESS PERIOD   2
 UBDSV2 SAVING "   CONSTANT HEAD" ON UNIT  53 AT TIME STEP 61, STRESS PERIOD   2
 UBDSV1 SAVING "FLOW RIGHT FACE " ON UNIT  53 AT TIME STEP 61, STRESS PERIOD   2
 UBDSV1 SAVING "FLOW FRONT FACE " ON UNIT  53 AT TIME STEP 61, STRESS PERIOD   2
1
              HEAD IN LAYER   1 AT END OF TIME STEP  61 IN STRESS PERIOD    2
  ---------------------------------------------------------------------------

            1           2           3           4           5           6           7           8           9          10
           11          12          13          14          15          16          17          18          19          20
           21          22          23          24          25          26          27          28          29          30
           31          32          33          34          35          36          37          38          39          40
           41          42          43          44          45          46          47          48          49          50
 ........................................................................................................................
   1    10.00       9.956       9.894       9.823       9.754       9.675       9.601       9.527       9.435       9.344    
        9.274       9.205       9.134       9.066       8.955       8.822       8.673       8.556       8.496       8.425    
        8.342       8.276       8.211       8.136       8.036       7.840       7.619       7.465       7.314       7.173    
        6.989       6.694       6.317       5.898       5.463       5.001       4.543       4.162       3.664       3.122    
        2.678       2.253       1.782       1.387       1.144      0.9380      0.7751      0.6571      0.4410       0.000    
   2    10.00       9.955       9.899       9.827       9.757       9.687       9.614       9.517       9.416       9.341    
        9.280       9.222       9.163       9.078       8.951       8.811       8.671       8.555       8.493       8.415    
        8.331       8.281       8.229       8.151       8.024       7.832       7.631       7.472       7.320       7.183    
        6.977       6.668       6.272       5.795       5.331       4.884       4.487       4.119       3.612       3.088    
        2.643       2.165       1.736       1.426       1.198       1.021      0.8192      0.6395      0.3568       0.000    
   3    10.00       9.949       9.893       9.829       9.767       9.697       9.602       9.500       9.429       9.362    
        9.294       9.240       9.188       9.106       8.976       8.804       8.651       8.558       8.485       8.405    
        8.337       8.284       8.230       8.125       7.987       7.816       7.642       7.517       7.340       7.160    
        6.901       6.535       6.081       5.618       5.208       4.791       4.404       4.008       3.481       2.996    
        2.615       2.175       1.783       1.500       1.274       1.091      0.8521      0.5715      0.2591       0.000    
   4    10.00       9.949       9.894       9.832       9.762       9.680       9.583       9.505       9.443       9.374    
        9.314       9.269       9.211       9.118       8.992       8.809       8.650       8.562       8.480       8.409    
        8.335       8.270       8.201       8.090       7.954       7.800       7.642       7.488       7.330       7.126    
        6.800       6.314       5.832       5.480       5.140       4.711       4.245       3.781       3.360       2.996    
        2.639       2.233       1.865       1.610       1.356       1.123      0.8277      0.5139      0.2462       0.000    
   5    10.00       9.946       9.890       9.820       9.749       9.673       9.585       9.518       9.454       9.390    
        9.338       9.294       9.217       9.109       8.969       8.802       8.667       8.571       8.490       8.394    
        8.305       8.234       8.150       8.042       7.920       7.762       7.604       7.462       7.304       7.053    
        6.584       6.038       5.651       5.377       5.041       4.578       4.097       3.677       3.364       3.035    
        2.686       2.313       1.949       1.713       1.441       1.106      0.7534      0.4582      0.2305       0.000    
   6    10.00       9.938       9.872       9.813       9.749       9.666       9.592       9.534       9.467       9.406    
        9.357       9.304       9.207       9.085       8.962       8.822       8.686       8.575       8.467       8.355    
        8.266       8.183       8.109       8.012       7.856       7.700       7.573       7.428       7.208       6.827    
        6.307       5.811       5.490       5.254       4.949       4.492       4.015       3.664       3.400       3.103    
        2.786       2.460       2.088       1.772       1.412       1.043      0.6653      0.3953      0.2177       0.000    
   7    10.00       9.926       9.861       9.807       9.740       9.671       9.605       9.551       9.488       9.429    
        9.368       9.287       9.181       9.066       8.950       8.840       8.697       8.544       8.420       8.311    
        8.217       8.137       8.073       7.950       7.790       7.659       7.530       7.333       6.975       6.486    
        5.991       5.590       5.374       5.164       4.812       4.382       4.063       3.724       3.439       3.247    
        2.948       2.599       2.163       1.712       1.309      0.9053      0.5729      0.3981      0.2050       0.000    
   8    10.00       9.925       9.867       9.805       9.738       9.677       9.619       9.564       9.507       9.449    
        9.370       9.266       9.162       9.052       8.944       8.820       8.641       8.480       8.379       8.273    
        8.168       8.100       8.004       7.872       7.731       7.594       7.376       7.068       6.615       6.186    
        5.817       5.511       5.314       5.074       4.696       4.344       4.056       3.807       3.588       3.368    
        3.078       2.640       2.105       1.624       1.204      0.8472      0.6063      0.3899      0.1869       0.000    
   9    10.00       9.937       9.866       9.799       9.749       9.698       9.640       9.581       9.518       9.456    
        9.364       9.246       9.132       9.022       8.907       8.760       8.586       8.438       8.328       8.220    
        8.127       8.038       7.908       7.781       7.651       7.481       7.163       6.750       6.326       6.013    
        5.711       5.460       5.244       4.944       4.596       4.302       4.084       3.902       3.707       3.467    
        3.119       2.642       2.098       1.620       1.212      0.8657      0.6116      0.3932      0.2011       0.000    
  10    10.00       9.934       9.860       9.805       9.758       9.709       9.657       9.606       9.532       9.441    
        9.329       9.205       9.096       8.993       8.874       8.693       8.509       8.381       8.280       8.178    
        8.091       7.967       7.823       7.680       7.527       7.279       6.870       6.443       6.083       5.832    
        5.638       5.427       5.165       4.863       4.540       4.294       4.131       3.974       3.763       3.488    
        3.090       2.596       2.099       1.693       1.311      0.9522      0.6307      0.4176      0.2245       0.000    
  11    10.00       9.920       9.860       9.815       9.769       9.727       9.679       9.607       9.507       9.404    
        9.291       9.170       9.069       8.945       8.782       8.609       8.458       8.344       8.252       8.148    
        8.017       7.859       7.663       7.500       7.242       6.894       6.547       6.233       5.932       5.747    
        5.598       5.328       5.043       4.794       4.548       4.361       4.192       3.992       3.733       3.400    
        3.026       2.645       2.171       1.771       1.408       1.053      0.7084      0.4101      0.1720       0.000    
  12    10.00       9.923       9.867       9.819       9.780       9.736       9.681       9.581       9.464       9.366    
        9.261       9.134       9.011       8.862       8.720       8.560       8.414       8.316       8.213       8.070    
        7.851       7.614       7.383       7.153       6.809       6.547       6.351       6.045       5.797       5.659    
        5.490       5.239       5.005       4.775       4.600       4.422       4.210       3.966       3.652       3.319    
        3.004       2.661       2.203       1.811       1.471       1.099      0.7450      0.3867      0.1283       0.000    
  13    10.00       9.938       9.885       9.834       9.788       9.735       9.647       9.532       9.422       9.321    
        9.203       9.079       8.951       8.796       8.639       8.488       8.382       8.259       8.123       7.839    
        7.508       7.257       7.003       6.696       6.433       6.308       6.087       5.818       5.684       5.557    
        5.358       5.143       4.959       4.789       4.639       4.475       4.223       3.896       3.595       3.283    
        2.983       2.630       2.140       1.776       1.484       1.089      0.6843      0.3336      0.1021       0.000    
  14    10.00       9.952       9.906       9.852       9.788       9.702       9.587       9.472       9.372       9.262    
        9.140       9.024       8.878       8.716       8.576       8.446       8.284       8.124       7.853       7.431    
        7.113       6.869       6.531       6.292       6.169       6.056       5.839       5.673       5.543       5.412    
        5.240       5.087       4.957       4.812       4.651       4.490       4.206       3.852       3.543       3.222    
        2.917       2.478       2.013       1.728       1.396       1.042      0.6843      0.3085      8.7866E-02   0.000    
  15    10.00       9.961       9.914       9.854       9.777       9.652       9.512       9.410       9.317       9.207    
        9.112       8.992       8.805       8.620       8.491       8.288       8.082       7.914       7.499       7.037    
        6.751       6.427       6.141       6.052       5.988       5.846       5.661       5.507       5.407       5.306    
        5.175       5.064       4.959       4.831       4.675       4.479       4.149       3.758       3.435       3.145    
        2.819       2.378       2.013       1.658       1.264      0.9524      0.6108      0.2825      9.5586E-02   0.000    
  16    10.00       9.968       9.917       9.843       9.730       9.581       9.456       9.375       9.293       9.182    
        9.067       8.891       8.657       8.478       8.292       8.057       7.919       7.578       6.995       6.593    
        6.341       6.064       5.963       5.911       5.794       5.610       5.466       5.390       5.342       5.256    
        5.147       5.046       4.957       4.829       4.641       4.377       4.002       3.668       3.415       3.112    
        2.735       2.303       1.911       1.525       1.188      0.8428      0.5474      0.2850      0.1018       0.000    
  17    10.00       9.963       9.902       9.803       9.675       9.521       9.410       9.340       9.241       9.124    
        8.918       8.671       8.474       8.292       8.052       7.818       7.528       6.984       6.500       6.250    
        6.053       5.907       5.836       5.715       5.533       5.402       5.361       5.337       5.290       5.203    
        5.108       5.021       4.927       4.798       4.529       4.185       3.898       3.683       3.440       3.076    
        2.601       2.180       1.817       1.455       1.064      0.7026      0.4663      0.2586      0.1077       0.000    
  18    10.00       9.948       9.869       9.754       9.587       9.456       9.378       9.273       9.153       8.977    
        8.716       8.510       8.325       8.047       7.734       7.411       7.006       6.533       6.238       6.047    
        5.898       5.771       5.657       5.493       5.368       5.328       5.311       5.287       5.227       5.144    
        5.064       4.977       4.858       4.659       4.383       4.109       3.887       3.712       3.408       2.961    
        2.505       2.065       1.701       1.362      0.9870      0.6476      0.3940      0.2160      0.1008       0.000    
  19    10.00       9.931       9.840       9.672       9.505       9.429       9.330       9.194       9.048       8.847    
        8.615       8.411       8.116       7.718       7.392       7.075       6.642       6.258       6.072       5.947    
        5.790       5.630       5.501       5.364       5.297       5.278       5.255       5.210       5.139       5.068    
        4.991       4.896       4.741       4.540       4.318       4.089       3.900       3.677       3.246       2.806    
        2.446       1.998       1.604       1.274      0.9063      0.5833      0.3544      0.2050      0.1026       0.000    
  20    10.00       9.910       9.771       9.597       9.474       9.386       9.277       9.131       8.957       8.770    
        8.528       8.224       7.823       7.459       7.170       6.792       6.398       6.203       6.046       5.876    
        5.706       5.538       5.380       5.279       5.233       5.196       5.145       5.099       5.031       4.967    
        4.894       4.799       4.646       4.473       4.276       4.083       3.885       3.538       3.087       2.715    
        2.317       1.883       1.534       1.204      0.8614      0.5241      0.3078      0.2068      0.1045       0.000    
  21    10.00       9.858       9.715       9.572       9.444       9.345       9.225       9.039       8.862       8.681    
        8.365       7.982       7.606       7.307       6.997       6.634       6.354       6.184       6.003       5.818    
        5.611       5.420       5.281       5.177       5.101       5.033       4.991       4.950       4.880       4.832    
        4.781       4.683       4.555       4.408       4.236       4.052       3.773       3.424       3.036       2.595    
        2.195       1.788       1.486       1.183      0.7487      0.4427      0.3154      0.2302      0.1106       0.000    
  22    10.00       9.837       9.668       9.529       9.420       9.302       9.125       8.939       8.782       8.542    
        8.209       7.809       7.484       7.236       6.897       6.562       6.326       6.150       5.972       5.748    
        5.509       5.316       5.136       4.976       4.873       4.824       4.792       4.737       4.714       4.686    
        4.648       4.574       4.480       4.346       4.188       4.011       3.721       3.375       2.919       2.485    
        2.140       1.770       1.435      0.9869      0.6166      0.4438      0.3337      0.2220      8.8152E-02   0.000    
  23    10.00       9.801       9.636       9.520       9.401       9.225       9.025       8.879       8.680       8.430    
        8.091       7.735       7.485       7.171       6.806       6.514       6.315       6.154       5.952       5.684    
        5.429       5.201       4.962       4.678       4.427       4.378       4.452       4.487       4.535       4.551    
        4.535       4.486       4.405       4.298       4.148       3.964       3.695       3.265       2.786       2.429    
        2.098       1.678       1.196      0.8068      0.6015      0.4554      0.3332      0.2114      9.8444E-02   0.000    
  24    10.00       9.773       9.653       9.520       9.351       9.157       9.000       8.841       8.645       8.358    
        8.046       7.770       7.494       7.116       6.730       6.500       6.335       6.167       5.923       5.653    
        5.400       5.139       4.773       4.120       3.137       3.468       3.919       4.203       4.355       4.416    
        4.433       4.403       4.348       4.239       4.094       3.908       3.575       3.122       2.715       2.337    
        1.934       1.489       1.062      0.7700      0.5987      0.4528      0.3255      0.2467      0.1358       0.000    
  25    10.00       9.802       9.675       9.515       9.337       9.164       9.002       8.851       8.612       8.326    
        8.065       7.799       7.462       7.048       6.748       6.538       6.354       6.157       5.930       5.679    
        5.406       5.145       4.479       3.089     -6.7121E-02   2.494       3.463       3.949       4.206       4.322    
        4.355       4.342       4.286       4.160       4.007       3.780       3.434       2.999       2.631       2.222    
        1.758       1.338      0.9890      0.7623      0.6229      0.4870      0.3559      0.2623      0.1712       0.000    
  26    10.00       9.830       9.711       9.538       9.355       9.203       9.036       8.846       8.602       8.379    
        8.154       7.800       7.376       7.023       6.805       6.616       6.397       6.141       5.900       5.686    
        5.475       5.189       4.574       3.565       2.504       3.024       3.586       3.939       4.157       4.281    
        4.310       4.295       4.221       4.097       3.949       3.703       3.252       2.849       2.538       2.037    
        1.532       1.185      0.9793      0.8270      0.6788      0.5281      0.3916      0.2869      0.1713       0.000    
  27    10.00       9.868       9.723       9.575       9.412       9.236       9.071       8.887       8.669       8.457    
        8.156       7.740       7.372       7.086       6.893       6.681       6.394       6.113       5.917       5.746    
        5.570       5.274       4.814       4.257       3.665       3.685       3.883       4.067       4.207       4.280    
        4.291       4.266       4.193       4.067       3.867       3.480       3.052       2.735       2.255       1.760    
        1.397       1.170       1.020      0.8915      0.7549      0.5812      0.4186      0.3133      0.2106       0.000    
  28    10.00       9.880       9.757       9.616       9.468       9.303       9.132       8.947       8.742       8.497    
        8.130       7.753       7.434       7.159       6.960       6.745       6.500       6.224       5.964       5.794    
        5.636       5.425       5.118       4.702       4.327       4.159       4.171       4.255       4.289       4.310    
        4.295       4.254       4.166       3.986       3.687       3.281       2.914       2.477       2.001       1.671    
        1.406       1.218       1.070      0.9419      0.8015      0.6353      0.4743      0.3564      0.2173       0.000    
  29    10.00       9.885       9.769       9.664       9.521       9.370       9.206       9.021       8.804       8.478    
        8.117       7.788       7.486       7.259       7.030       6.798       6.574       6.354       6.102       5.882    
        5.713       5.534       5.323       5.067       4.727       4.544       4.474       4.443       4.422       4.375    
        4.314       4.227       4.112       3.865       3.503       3.133       2.747       2.304       1.939       1.698    
        1.481       1.274       1.112      0.9877      0.8509      0.6805      0.5145      0.3768      0.2196       0.000    
  30    10.00       9.896       9.799       9.707       9.583       9.444       9.299       9.094       8.824       8.493    
        8.121       7.788       7.536       7.312       7.087       6.862       6.675       6.485       6.258       6.023    
        5.821       5.656       5.473       5.289       5.070       4.871       4.788       4.659       4.578       4.461    
        4.327       4.178       4.005       3.741       3.440       3.085       2.684       2.274       2.004       1.783    
        1.536       1.333       1.177       1.028      0.8736      0.7226      0.5486      0.3928      0.2374       0.000    
  31    10.00       9.913       9.830       9.744       9.655       9.545       9.387       9.147       8.836       8.492    
        8.135       7.825       7.586       7.357       7.157       6.950       6.753       6.608       6.390       6.163    
        5.969       5.798       5.637       5.467       5.325       5.167       5.010       4.862       4.701       4.531    
        4.326       4.123       3.940       3.723       3.420       3.048       2.663       2.323       2.103       1.904    
        1.648       1.413       1.230       1.073      0.9192      0.7591      0.5844      0.4200      0.2312       0.000    
  32    10.00       9.927       9.864       9.788       9.702       9.603       9.447       9.176       8.886       8.573    
        8.197       7.875       7.638       7.423       7.222       7.047       6.874       6.691       6.514       6.299    
        6.094       5.909       5.750       5.590       5.461       5.350       5.176       4.997       4.783       4.552    
        4.332       4.127       3.926       3.714       3.425       3.087       2.762       2.463       2.228       2.003    
        1.765       1.519       1.324       1.139      0.9630      0.8179      0.6388      0.4210      0.2092       0.000    
  33    10.00       9.937       9.885       9.825       9.741       9.630       9.432       9.171       8.928       8.640    
        8.276       7.958       7.713       7.480       7.293       7.144       6.990       6.809       6.613       6.415    
        6.202       6.002       5.816       5.661       5.556       5.445       5.272       5.049       4.826       4.605    
        4.386       4.195       3.989       3.719       3.443       3.135       2.857       2.615       2.370       2.125    
        1.902       1.668       1.453       1.259       1.062      0.8899      0.6884      0.4311      0.2031       0.000    
  34    10.00       9.944       9.909       9.856       9.754       9.601       9.411       9.219       8.970       8.659    
        8.339       8.031       7.770       7.538       7.370       7.252       7.089       6.907       6.694       6.507    
        6.312       6.078       5.891       5.748       5.640       5.507       5.306       5.106       4.876       4.634    
        4.449       4.275       4.088       3.820       3.533       3.249       2.992       2.775       2.522       2.273    
        2.059       1.843       1.615       1.415       1.207       1.003      0.7459      0.4793      0.2527       0.000    
  35    10.00       9.954       9.914       9.848       9.721       9.561       9.423       9.260       9.033       8.699    
        8.360       8.076       7.814       7.613       7.469       7.336       7.169       6.968       6.763       6.555    
        6.373       6.164       5.974       5.839       5.722       5.591       5.376       5.133       4.889       4.659    
        4.519       4.356       4.153       3.948       3.699       3.395       3.133       2.955       2.697       2.415    
        2.213       1.996       1.779       1.583       1.349       1.121      0.8614      0.5750      0.2874       0.000    
  36    10.00       9.951       9.895       9.821       9.696       9.544       9.420       9.269       9.042       8.733    
        8.381       8.074       7.877       7.716       7.580       7.418       7.218       7.023       6.805       6.551    
        6.357       6.192       6.028       5.911       5.797       5.639       5.412       5.159       4.909       4.697    
        4.557       4.418       4.228       4.031       3.817       3.540       3.275       3.076       2.849       2.545    
        2.316       2.098       1.875       1.713       1.487       1.234      0.9747      0.6753      0.3435       0.000    
  37    10.00       9.936       9.875       9.795       9.668       9.530       9.391       9.246       9.039       8.707    
        8.352       8.099       7.976       7.823       7.646       7.484       7.258       7.023       6.759       6.506    
        6.353       6.222       6.068       5.947       5.814       5.628       5.417       5.156       4.932       4.768    
        4.619       4.465       4.268       4.094       3.871       3.606       3.394       3.201       2.947       2.645    
        2.371       2.157       1.979       1.797       1.583       1.347       1.098      0.7626      0.4132       0.000    
  38    10.00       9.929       9.850       9.765       9.649       9.514       9.361       9.209       8.990       8.684    
        8.412       8.208       8.050       7.913       7.716       7.471       7.217       6.938       6.655       6.490    
        6.371       6.213       6.069       5.963       5.821       5.617       5.362       5.126       4.991       4.855    
        4.691       4.514       4.323       4.145       3.926       3.679       3.489       3.292       2.989       2.672    
        2.434       2.235       2.054       1.872       1.681       1.454       1.196      0.8728      0.4529       0.000    
  39    10.00       9.910       9.831       9.747       9.633       9.482       9.318       9.158       8.959       8.711    
        8.499       8.347       8.171       7.978       7.697       7.382       7.070       6.773       6.600       6.491    
        6.334       6.167       6.062       5.963       5.831       5.597       5.340       5.177       5.055       4.914    
        4.739       4.569       4.374       4.182       3.994       3.789       3.568       3.338       3.026       2.713    
        2.462       2.263       2.122       1.976       1.768       1.536       1.276      0.9251      0.4531       0.000    
  40    10.00       9.896       9.819       9.734       9.619       9.462       9.293       9.132       8.962       8.757    
        8.582       8.452       8.237       7.932       7.577       7.226       6.911       6.705       6.589       6.462    
        6.290       6.144       6.049       5.935       5.781       5.592       5.416       5.251       5.105       4.973    
        4.811       4.619       4.420       4.238       4.063       3.855       3.617       3.385       3.046       2.703    
        2.476       2.309       2.162       2.037       1.827       1.568       1.330      0.9613      0.4747       0.000    
  41    10.00       9.903       9.813       9.720       9.593       9.451       9.303       9.159       8.996       8.813    
        8.647       8.490       8.204       7.818       7.427       7.109       6.859       6.684       6.566       6.421    
        6.248       6.124       6.020       5.897       5.761       5.623       5.491       5.333       5.159       5.006    
        4.859       4.675       4.474       4.306       4.123       3.919       3.675       3.352       2.976       2.712    
        2.527       2.353       2.217       2.060       1.838       1.582       1.371       1.020      0.5225       0.000    
  42    10.00       9.907       9.806       9.720       9.610       9.477       9.330       9.169       9.024       8.884    
        8.687       8.407       8.050       7.652       7.301       7.055       6.839       6.675       6.537       6.365    
        6.206       6.091       5.986       5.897       5.780       5.677       5.554       5.373       5.188       5.050    
        4.919       4.721       4.503       4.346       4.189       3.960       3.647       3.260       2.925       2.723    
        2.576       2.428       2.260       2.055       1.825       1.619       1.406       1.062      0.5467       0.000    
  43    10.00       9.908       9.816       9.728       9.640       9.523       9.375       9.217       9.060       8.861    
        8.581       8.260       7.894       7.511       7.238       7.032       6.829       6.658       6.493       6.323    
        6.173       6.066       5.987       5.918       5.814       5.701       5.583       5.406       5.240       5.126    
        4.960       4.742       4.537       4.382       4.201       3.921       3.553       3.180       2.947       2.787    
        2.630       2.471       2.266       2.045       1.834       1.635       1.443       1.059      0.4772       0.000    
  44    10.00       9.902       9.818       9.742       9.646       9.556       9.431       9.239       9.028       8.753    
        8.471       8.133       7.733       7.455       7.243       7.017       6.795       6.601       6.422       6.271    
        6.164       6.077       6.002       5.931       5.841       5.727       5.587       5.448       5.318       5.175    
        5.016       4.818       4.587       4.367       4.155       3.869       3.486       3.162       2.975       2.821    
        2.671       2.494       2.289       2.091       1.871       1.650       1.400      0.9070      0.4009       0.000    
  45    10.00       9.902       9.833       9.745       9.655       9.574       9.394       9.176       8.928       8.658    
        8.420       8.015       7.644       7.435       7.220       6.973       6.724       6.526       6.368       6.259    
        6.182       6.105       6.026       5.940       5.845       5.740       5.623       5.504       5.398       5.251    
        5.060       4.849       4.615       4.349       4.108       3.797       3.437       3.182       3.028       2.873    
        2.678       2.475       2.295       2.116       1.924       1.686       1.263      0.7604      0.3852       0.000    
  46    10.00       9.919       9.845       9.753       9.653       9.502       9.311       9.131       8.905       8.640    
        8.298       7.926       7.628       7.368       7.148       6.904       6.656       6.501       6.383       6.282    
        6.210       6.139       6.047       5.943       5.849       5.756       5.660       5.554       5.448       5.314    
        5.136       4.915       4.655       4.355       4.019       3.685       3.422       3.248       3.076       2.898    
        2.674       2.462       2.282       2.139       1.932       1.600       1.132      0.7164      0.3640       0.000    
  47    10.00       9.937       9.869       9.772       9.599       9.417       9.254       9.100       8.898       8.567    
        8.199       7.853       7.566       7.348       7.112       6.842       6.628       6.490       6.396       6.313    
        6.237       6.155       6.063       5.962       5.868       5.787       5.702       5.597       5.475       5.342    
        5.185       4.989       4.654       4.257       3.941       3.694       3.465       3.315       3.158       2.910    
        2.643       2.420       2.253       2.136       1.877       1.480       1.051      0.6895      0.3539       0.000    
  48    10.00       9.945       9.873       9.727       9.553       9.402       9.228       9.073       8.857       8.509    
        8.107       7.794       7.561       7.301       7.027       6.785       6.624       6.489       6.399       6.338    
        6.261       6.163       6.062       5.974       5.899       5.830       5.749       5.633       5.489       5.334    
        5.171       4.947       4.600       4.274       3.998       3.752       3.538       3.369       3.165       2.869    
        2.586       2.407       2.267       2.048       1.702       1.347       1.004      0.6945      0.3736       0.000    
  49    10.00       9.942       9.839       9.709       9.567       9.391       9.216       9.041       8.774       8.406    
        8.059       7.766       7.486       7.239       7.028       6.800       6.592       6.471       6.411       6.351    
        6.280       6.169       6.057       5.984       5.922       5.868       5.777       5.637       5.473       5.325    
        5.155       4.881       4.587       4.369       4.115       3.828       3.568       3.364       3.129       2.813    
        2.585       2.428       2.219       1.889       1.581       1.291      0.9927      0.6945      0.3724       0.000    
  50    10.00       9.934       9.827       9.694       9.566       9.401       9.206       8.988       8.706       8.415    
        8.053       7.686       7.426       7.229       7.051       6.794       6.564       6.473       6.419       6.360    
        6.288       6.174       6.059       5.988       5.936       5.885       5.782       5.622       5.457       5.316    
        5.141       4.859       4.632       4.436       4.171       3.885       3.614       3.334       3.013       2.748    
        2.630       2.452       2.130       1.799       1.570       1.289       1.007      0.6802      0.3033       0.000    

 HEAD WILL BE SAVED ON UNIT   51 AT END OF TIME STEP  61, STRESS PERIOD    2

 DRAWDOWN WILL BE SAVED ON UNIT   52 AT END OF TIME STEP  61, STRESS PERIOD    2
1
  VOLUMETRIC BUDGET FOR ENTIRE MODEL AT END OF TIME STEP 61 IN STRESS PERIOD   2
  ------------------------------------------------------------------------------

     CUMULATIVE VOLUMES      L**3       RATES FOR THIS TIME STEP      L**3/T
     ------------------                 ------------------------

           IN:                                      IN:
           ---                                      ---
             STORAGE =       29493.7539               STORAGE =         442.3831
       CONSTANT HEAD =       37896.9609         CONSTANT HEAD =         645.4488
               WELLS =           0.0000                 WELLS =           0.0000

            TOTAL IN =       67390.7188              TOTAL IN =        1087.8319

          OUT:                                     OUT:
          ----                                     ----
             STORAGE =       9.4320E-03               STORAGE =           0.0000
       CONSTANT HEAD =       36890.6953         CONSTANT HEAD =         587.8320
               WELLS =       30500.0000                 WELLS =         500.0000

           TOTAL OUT =       67390.7031             TOTAL OUT =        1087.8320

            IN - OUT =       1.5625E-02              IN - OUT =      -1.2207E-04

 PERCENT DISCREPANCY =           0.00     PERCENT DISCREPANCY =           0.00






          TIME SUMMARY AT END OF TIME STEP  61 IN STRESS PERIOD    2
                    SECONDS     MINUTES      HOURS       DAYS        YEARS
                    -----------------------------------------------------------
   TIME STEP LENGTH  86400.      1440.0      24.000      1.0000     2.73785E-03
 STRESS PERIOD TIME 5.27040E+06  87840.      1464.0      61.000     0.16701    
         TOTAL TIME 5.35680E+06  89280.      1488.0      62.000     0.16975    
1
 
 SOLVING FOR HEAD 

 OUTPUT CONTROL FOR STRESS PERIOD    2   TIME STEP  62
    SAVE HEAD FOR ALL LAYERS
    SAVE DRAWDOWN FOR ALL LAYERS
    SAVE BUDGET
    PRINT HEAD FOR ALL LAYERS
    PRINT BUDGET
 UBDSV1 SAVING "         STORAGE" ON UNIT  53 AT TIME STEP 62, STRESS PERIOD   2
 UBDSV2 SAVING "   CONSTANT HEAD" ON UNIT  53 AT TIME STEP 62, STRESS PERIOD   2
 UBDSV1 SAVING "FLOW RIGHT FACE " ON UNIT  53 AT TIME STEP 62, STRESS PERIOD   2
 UBDSV1 SAVING "FLOW FRONT FACE " ON UNIT  53 AT TIME STEP 62, STRESS PERIOD   2
1
              HEAD IN LAYER   1 AT END OF TIME STEP  62 IN STRESS PERIOD    2
  ---------------------------------------------------------------------------

            1           2           3           4           5           6           7           8           9          10
           11          12          13          14          15          16          17          18          19          20
           21          22          23          24          25          26          27          28          29          30
           31          32          33          34          35          36          37          38          39          40
           41          42          43          44          45          46          47          48          49          50
 ........................................................................................................................
   1    10.00       9.956       9.894       9.822       9.753       9.674       9.600       9.526       9.433       9.343    
        9.272       9.203       9.132       9.064       8.953       8.819       8.670       8.553       8.492       8.422    
        8.338       8.272       8.207       8.132       8.032       7.836       7.615       7.461       7.310       7.169    
        6.985       6.690       6.313       5.894       5.460       4.997       4.540       4.159       3.662       3.120    
        2.676       2.251       1.780       1.386       1.143      0.9373      0.7745      0.6566      0.4407       0.000    
   2    10.00       9.955       9.898       9.827       9.756       9.687       9.613       9.516       9.414       9.340    
        9.279       9.220       9.161       9.075       8.948       8.808       8.668       8.552       8.490       8.412    
        8.328       8.278       8.225       8.147       8.020       7.828       7.627       7.468       7.316       7.179    
        6.973       6.664       6.269       5.791       5.328       4.881       4.484       4.116       3.610       3.086    
        2.641       2.164       1.734       1.425       1.197       1.020      0.8185      0.6390      0.3565       0.000    
   3    10.00       9.949       9.892       9.829       9.767       9.696       9.601       9.499       9.427       9.360    
        9.292       9.238       9.186       9.104       8.974       8.801       8.648       8.554       8.481       8.401    
        8.333       8.281       8.226       8.121       7.983       7.812       7.638       7.513       7.335       7.156    
        6.897       6.531       6.077       5.614       5.204       4.788       4.401       4.005       3.479       2.994    
        2.612       2.174       1.782       1.499       1.273       1.090      0.8515      0.5710      0.2589       0.000    
   4    10.00       9.949       9.893       9.831       9.761       9.679       9.581       9.503       9.441       9.372    
        9.312       9.268       9.209       9.116       8.990       8.806       8.647       8.558       8.477       8.405    
        8.331       8.266       8.197       8.086       7.950       7.796       7.638       7.483       7.326       7.122    
        6.796       6.310       5.827       5.476       5.136       4.708       4.242       3.778       3.358       2.993    
        2.637       2.231       1.863       1.609       1.355       1.122      0.8271      0.5135      0.2460       0.000    
   5    10.00       9.945       9.889       9.819       9.749       9.672       9.584       9.517       9.453       9.388    
        9.336       9.292       9.216       9.106       8.966       8.799       8.664       8.567       8.486       8.390    
        8.301       8.231       8.146       8.038       7.916       7.758       7.600       7.457       7.299       7.049    
        6.580       6.033       5.647       5.372       5.037       4.574       4.093       3.673       3.361       3.032    
        2.684       2.311       1.948       1.712       1.440       1.105      0.7528      0.4579      0.2303       0.000    
   6    10.00       9.938       9.871       9.813       9.748       9.665       9.591       9.533       9.466       9.405    
        9.355       9.302       9.205       9.082       8.960       8.819       8.683       8.571       8.464       8.351    
        8.262       8.179       8.105       8.008       7.851       7.696       7.569       7.423       7.203       6.822    
        6.302       5.805       5.484       5.249       4.945       4.487       4.011       3.660       3.396       3.100    
        2.784       2.457       2.087       1.771       1.410       1.042      0.6647      0.3950      0.2175       0.000    
   7    10.00       9.926       9.861       9.807       9.740       9.671       9.604       9.549       9.487       9.427    
        9.367       9.285       9.179       9.064       8.947       8.837       8.694       8.541       8.417       8.307    
        8.213       8.132       8.069       7.946       7.785       7.654       7.525       7.328       6.970       6.480    
        5.985       5.585       5.369       5.159       4.806       4.377       4.059       3.720       3.435       3.243    
        2.945       2.596       2.161       1.710       1.307      0.9045      0.5724      0.3978      0.2048       0.000    
   8    10.00       9.925       9.867       9.805       9.738       9.676       9.618       9.563       9.505       9.448    
        9.368       9.264       9.159       9.049       8.942       8.817       8.637       8.477       8.375       8.269    
        8.164       8.095       8.000       7.867       7.726       7.589       7.370       7.063       6.608       6.179    
        5.811       5.504       5.308       5.068       4.691       4.338       4.051       3.802       3.584       3.364    
        3.074       2.637       2.103       1.622       1.203      0.8464      0.6058      0.3895      0.1868       0.000    
   9    10.00       9.937       9.866       9.798       9.748       9.697       9.639       9.580       9.516       9.455    
        9.362       9.244       9.129       9.019       8.904       8.757       8.582       8.434       8.324       8.215    
        8.122       8.033       7.903       7.776       7.645       7.475       7.157       6.744       6.319       6.006    
        5.704       5.453       5.237       4.938       4.590       4.296       4.079       3.898       3.703       3.463    
        3.116       2.639       2.095       1.619       1.211      0.8648      0.6111      0.3929      0.2009       0.000    
  10    10.00       9.934       9.859       9.804       9.758       9.709       9.656       9.605       9.531       9.440    
        9.327       9.203       9.093       8.990       8.871       8.689       8.505       8.377       8.276       8.174    
        8.086       7.962       7.818       7.674       7.522       7.273       6.863       6.435       6.075       5.824    
        5.631       5.420       5.158       4.856       4.533       4.289       4.125       3.968       3.758       3.483    
        3.086       2.593       2.097       1.691       1.310      0.9513      0.6301      0.4172      0.2243       0.000    
  11    10.00       9.920       9.860       9.814       9.768       9.726       9.678       9.606       9.505       9.402    
        9.289       9.168       9.066       8.942       8.779       8.605       8.454       8.339       8.247       8.143    
        8.012       7.853       7.658       7.493       7.236       6.887       6.539       6.225       5.924       5.739    
        5.590       5.321       5.036       4.787       4.541       4.355       4.186       3.986       3.728       3.395    
        3.022       2.642       2.168       1.769       1.407       1.052      0.7077      0.4097      0.1719       0.000    
  12    10.00       9.923       9.867       9.818       9.780       9.735       9.680       9.580       9.462       9.364    
        9.259       9.132       9.008       8.859       8.716       8.556       8.409       8.311       8.208       8.064    
        7.845       7.607       7.376       7.145       6.801       6.538       6.342       6.036       5.788       5.650    
        5.481       5.230       4.997       4.767       4.592       4.415       4.203       3.960       3.647       3.314    
        3.000       2.657       2.201       1.809       1.470       1.098      0.7442      0.3863      0.1282       0.000    
  13    10.00       9.937       9.884       9.833       9.787       9.735       9.646       9.531       9.420       9.319    
        9.201       9.076       8.947       8.792       8.634       8.484       8.377       8.254       8.118       7.833    
        7.501       7.249       6.994       6.687       6.423       6.298       6.077       5.808       5.674       5.547    
        5.349       5.134       4.950       4.781       4.632       4.467       4.217       3.890       3.590       3.278    
        2.979       2.626       2.137       1.774       1.482       1.088      0.6835      0.3332      0.1020       0.000    
  14    10.00       9.952       9.906       9.852       9.788       9.701       9.586       9.470       9.370       9.259    
        9.137       9.021       8.874       8.712       8.571       8.441       8.279       8.118       7.846       7.423    
        7.104       6.860       6.521       6.281       6.159       6.046       5.828       5.662       5.533       5.402    
        5.230       5.077       4.948       4.803       4.643       4.482       4.199       3.845       3.537       3.217    
        2.913       2.475       2.010       1.726       1.395       1.041      0.6834      0.3081      8.7761E-02   0.000    
  15    10.00       9.961       9.914       9.853       9.776       9.651       9.510       9.408       9.315       9.205    
        9.109       8.989       8.801       8.615       8.486       8.282       8.076       7.907       7.490       7.028    
        6.741       6.416       6.130       6.041       5.977       5.834       5.650       5.495       5.395       5.295    
        5.165       5.054       4.949       4.822       4.666       4.471       4.142       3.752       3.429       3.139    
        2.814       2.374       2.010       1.655       1.263      0.9512      0.6100      0.2822      9.5464E-02   0.000    
  16    10.00       9.968       9.917       9.842       9.729       9.579       9.454       9.373       9.290       9.179    
        9.064       8.887       8.652       8.472       8.286       8.050       7.912       7.570       6.985       6.582    
        6.330       6.052       5.951       5.900       5.782       5.598       5.454       5.378       5.330       5.244    
        5.136       5.036       4.947       4.819       4.632       4.368       3.995       3.661       3.409       3.106    
        2.731       2.299       1.909       1.523       1.186      0.8416      0.5467      0.2847      0.1016       0.000    
  17    10.00       9.963       9.902       9.802       9.674       9.519       9.408       9.337       9.238       9.120    
        8.914       8.666       8.469       8.285       8.045       7.810       7.520       6.974       6.489       6.238    
        6.041       5.894       5.824       5.703       5.520       5.390       5.348       5.325       5.278       5.191    
        5.097       5.010       4.916       4.788       4.519       4.177       3.890       3.676       3.434       3.070    
        2.597       2.176       1.814       1.453       1.063      0.7015      0.4656      0.2582      0.1076       0.000    
  18    10.00       9.948       9.869       9.753       9.585       9.454       9.376       9.270       9.150       8.973    
        8.711       8.504       8.318       8.039       7.725       7.401       6.995       6.522       6.226       6.034    
        5.885       5.758       5.644       5.480       5.355       5.315       5.298       5.274       5.214       5.132    
        5.052       4.965       4.847       4.648       4.373       4.100       3.878       3.704       3.401       2.955    
        2.500       2.062       1.698       1.360      0.9855      0.6466      0.3934      0.2157      0.1007       0.000    
  19    10.00       9.930       9.839       9.670       9.503       9.426       9.327       9.190       9.044       8.843    
        8.609       8.405       8.108       7.710       7.383       7.064       6.630       6.246       6.059       5.935    
        5.777       5.617       5.488       5.351       5.284       5.265       5.242       5.198       5.126       5.056    
        4.979       4.884       4.729       4.529       4.308       4.079       3.892       3.669       3.239       2.801    
        2.441       1.995       1.601       1.272      0.9048      0.5825      0.3539      0.2047      0.1025       0.000    
  20    10.00       9.910       9.770       9.595       9.472       9.384       9.274       9.127       8.953       8.765    
        8.522       8.217       7.814       7.449       7.160       6.780       6.386       6.190       6.033       5.863    
        5.693       5.525       5.366       5.266       5.220       5.183       5.132       5.086       5.017       4.954    
        4.881       4.787       4.634       4.461       4.265       4.073       3.875       3.530       3.081       2.710    
        2.313       1.879       1.531       1.202      0.8600      0.5233      0.3074      0.2065      0.1043       0.000    
  21    10.00       9.858       9.714       9.570       9.441       9.342       9.221       9.035       8.857       8.675    
        8.358       7.974       7.596       7.296       6.986       6.622       6.342       6.171       5.990       5.805    
        5.597       5.406       5.267       5.164       5.087       5.019       4.978       4.937       4.866       4.818    
        4.768       4.670       4.543       4.397       4.225       4.042       3.764       3.416       3.029       2.590    
        2.191       1.784       1.483       1.181      0.7475      0.4420      0.3149      0.2298      0.1105       0.000    
  22    10.00       9.837       9.667       9.527       9.418       9.299       9.121       8.935       8.777       8.536    
        8.202       7.800       7.474       7.225       6.885       6.550       6.313       6.138       5.958       5.735    
        5.496       5.302       5.122       4.963       4.859       4.810       4.778       4.723       4.700       4.672    
        4.635       4.561       4.467       4.333       4.176       4.000       3.712       3.367       2.912       2.480    
        2.136       1.767       1.433      0.9853      0.6157      0.4431      0.3332      0.2216      8.8029E-02   0.000    
  23    10.00       9.800       9.634       9.518       9.398       9.221       9.021       8.874       8.674       8.424    
        8.083       7.726       7.475       7.160       6.794       6.502       6.302       6.141       5.938       5.670    
        5.415       5.187       4.948       4.664       4.413       4.364       4.437       4.473       4.521       4.536    
        4.521       4.473       4.392       4.286       4.136       3.953       3.686       3.257       2.779       2.424    
        2.094       1.675       1.194      0.8055      0.6007      0.4547      0.3327      0.2111      9.8312E-02   0.000    
  24    10.00       9.772       9.652       9.518       9.348       9.153       8.995       8.836       8.639       8.351    
        8.038       7.761       7.484       7.105       6.718       6.487       6.322       6.154       5.910       5.640    
        5.387       5.125       4.759       4.106       3.122       3.454       3.904       4.189       4.340       4.402    
        4.418       4.389       4.334       4.226       4.082       3.897       3.566       3.114       2.709       2.332    
        1.930       1.486       1.060      0.7689      0.5979      0.4522      0.3251      0.2464      0.1356       0.000    
  25    10.00       9.801       9.674       9.512       9.334       9.160       8.998       8.846       8.606       8.319    
        8.057       7.790       7.452       7.036       6.737       6.526       6.341       6.144       5.916       5.666    
        5.392       5.131       4.465       3.074     -8.3157E-02   2.479       3.448       3.934       4.191       4.308    
        4.340       4.328       4.272       4.147       3.995       3.769       3.425       2.992       2.625       2.218    
        1.755       1.336      0.9876      0.7612      0.6221      0.4864      0.3554      0.2620      0.1710       0.000    
  26    10.00       9.830       9.710       9.536       9.352       9.200       9.032       8.841       8.596       8.372    
        8.146       7.792       7.366       7.012       6.793       6.604       6.384       6.128       5.887       5.672    
        5.462       5.175       4.560       3.551       2.489       3.009       3.570       3.924       4.142       4.266    
        4.296       4.281       4.207       4.085       3.938       3.693       3.243       2.842       2.533       2.033    
        1.530       1.183      0.9780      0.8259      0.6779      0.5275      0.3911      0.2865      0.1711       0.000    
  27    10.00       9.867       9.722       9.573       9.410       9.233       9.067       8.882       8.663       8.450    
        8.148       7.731       7.362       7.075       6.882       6.669       6.381       6.100       5.904       5.733    
        5.556       5.260       4.800       4.243       3.650       3.669       3.867       4.052       4.192       4.265    
        4.277       4.252       4.180       4.055       3.855       3.471       3.045       2.729       2.250       1.757    
        1.395       1.168       1.019      0.8904      0.7540      0.5805      0.4181      0.3130      0.2103       0.000    
  28    10.00       9.879       9.756       9.615       9.466       9.300       9.128       8.943       8.737       8.491    
        8.122       7.744       7.424       7.148       6.949       6.734       6.488       6.212       5.951       5.781    
        5.623       5.411       5.104       4.687       4.313       4.144       4.155       4.240       4.275       4.296    
        4.281       4.240       4.153       3.974       3.676       3.273       2.907       2.472       1.997       1.669    
        1.404       1.217       1.068      0.9407      0.8006      0.6346      0.4738      0.3560      0.2171       0.000    
  29    10.00       9.885       9.768       9.662       9.519       9.367       9.203       9.017       8.799       8.472    
        8.109       7.779       7.477       7.249       7.019       6.787       6.563       6.342       6.089       5.868    
        5.699       5.520       5.309       5.053       4.712       4.529       4.459       4.428       4.408       4.361    
        4.301       4.214       4.100       3.855       3.495       3.126       2.741       2.300       1.936       1.696    
        1.479       1.273       1.111      0.9865      0.8499      0.6797      0.5140      0.3763      0.2194       0.000    
  30    10.00       9.895       9.798       9.706       9.582       9.442       9.296       9.090       8.819       8.487    
        8.114       7.779       7.526       7.302       7.076       6.851       6.663       6.474       6.246       6.010    
        5.808       5.643       5.460       5.275       5.056       4.857       4.774       4.645       4.565       4.448    
        4.315       4.167       3.996       3.733       3.432       3.079       2.679       2.270       2.002       1.780    
        1.534       1.331       1.176       1.026      0.8726      0.7219      0.5480      0.3924      0.2371       0.000    
  31    10.00       9.913       9.829       9.743       9.653       9.543       9.384       9.143       8.832       8.486    
        8.128       7.816       7.577       7.348       7.147       6.939       6.742       6.597       6.378       6.151    
        5.957       5.785       5.624       5.454       5.312       5.153       4.997       4.849       4.688       4.519    
        4.316       4.114       3.932       3.716       3.414       3.043       2.659       2.319       2.100       1.901    
        1.646       1.411       1.229       1.071      0.9182      0.7584      0.5838      0.4195      0.2309       0.000    
  32    10.00       9.927       9.863       9.788       9.701       9.602       9.445       9.173       8.882       8.568    
        8.190       7.867       7.629       7.414       7.212       7.037       6.863       6.680       6.503       6.287    
        6.082       5.896       5.737       5.578       5.448       5.337       5.164       4.985       4.772       4.542    
        4.322       4.119       3.919       3.708       3.419       3.082       2.759       2.459       2.225       2.001    
        1.763       1.518       1.323       1.138      0.9621      0.8171      0.6382      0.4206      0.2090       0.000    
  33    10.00       9.937       9.885       9.824       9.740       9.629       9.430       9.168       8.924       8.635    
        8.270       7.950       7.705       7.471       7.284       7.134       6.981       6.799       6.602       6.404    
        6.190       5.991       5.804       5.649       5.544       5.433       5.260       5.038       4.817       4.597    
        4.378       4.187       3.982       3.713       3.438       3.131       2.853       2.612       2.368       2.122    
        1.900       1.667       1.452       1.258       1.062      0.8892      0.6878      0.4308      0.2029       0.000    
  34    10.00       9.943       9.909       9.856       9.753       9.600       9.409       9.216       8.967       8.654    
        8.334       8.024       7.762       7.530       7.362       7.243       7.080       6.897       6.683       6.496    
        6.301       6.067       5.880       5.736       5.629       5.496       5.296       5.096       4.867       4.626    
        4.442       4.269       4.083       3.815       3.529       3.245       2.989       2.772       2.519       2.271    
        2.057       1.842       1.614       1.414       1.206       1.003      0.7455      0.4791      0.2526       0.000    
  35    10.00       9.953       9.914       9.848       9.721       9.560       9.421       9.257       9.029       8.695    
        8.355       8.070       7.807       7.606       7.461       7.328       7.160       6.959       6.753       6.546    
        6.363       6.155       5.964       5.829       5.712       5.581       5.367       5.125       4.882       4.653    
        4.513       4.350       4.148       3.943       3.695       3.392       3.130       2.952       2.694       2.414    
        2.211       1.995       1.778       1.582       1.348       1.121      0.8610      0.5748      0.2872       0.000    
  36    10.00       9.951       9.895       9.821       9.695       9.543       9.418       9.267       9.040       8.729    
        8.376       8.068       7.871       7.709       7.573       7.410       7.210       7.015       6.797       6.542    
        6.348       6.184       6.020       5.902       5.788       5.630       5.404       5.152       4.903       4.692    
        4.552       4.414       4.224       4.027       3.814       3.537       3.272       3.074       2.847       2.543    
        2.315       2.096       1.874       1.712       1.486       1.234      0.9744      0.6751      0.3434       0.000    
  37    10.00       9.936       9.875       9.794       9.668       9.529       9.390       9.244       9.036       8.703    
        8.348       8.094       7.970       7.817       7.639       7.477       7.250       7.015       6.751       6.498    
        6.346       6.215       6.060       5.939       5.807       5.621       5.410       5.150       4.928       4.764    
        4.615       4.461       4.264       4.091       3.868       3.603       3.392       3.199       2.945       2.643    
        2.370       2.156       1.978       1.796       1.582       1.347       1.098      0.7624      0.4131       0.000    
  38    10.00       9.929       9.850       9.765       9.648       9.513       9.359       9.207       8.988       8.680    
        8.408       8.203       8.045       7.907       7.710       7.465       7.210       6.931       6.649       6.484    
        6.364       6.206       6.062       5.956       5.815       5.611       5.357       5.122       4.987       4.851    
        4.687       4.511       4.320       4.142       3.923       3.677       3.487       3.290       2.988       2.671    
        2.433       2.234       2.053       1.871       1.680       1.453       1.196      0.8726      0.4528       0.000    
  39    10.00       9.910       9.831       9.746       9.632       9.481       9.316       9.156       8.957       8.708    
        8.496       8.343       8.167       7.973       7.691       7.376       7.064       6.767       6.595       6.486    
        6.328       6.162       6.057       5.958       5.826       5.592       5.336       5.174       5.052       4.911    
        4.736       4.566       4.372       4.179       3.992       3.787       3.566       3.337       3.025       2.712    
        2.461       2.262       2.121       1.975       1.768       1.536       1.276      0.9248      0.4530       0.000    
  40    10.00       9.895       9.818       9.733       9.618       9.461       9.292       9.130       8.960       8.755    
        8.579       8.448       8.233       7.928       7.573       7.222       6.906       6.701       6.585       6.457    
        6.285       6.140       6.045       5.931       5.777       5.589       5.413       5.248       5.102       4.970    
        4.808       4.617       4.418       4.236       4.061       3.853       3.615       3.384       3.044       2.702    
        2.475       2.308       2.162       2.036       1.826       1.568       1.330      0.9610      0.4745       0.000    
  41    10.00       9.903       9.813       9.719       9.592       9.450       9.301       9.157       8.994       8.811    
        8.645       8.487       8.201       7.815       7.423       7.105       6.856       6.681       6.562       6.417    
        6.244       6.120       6.016       5.894       5.758       5.620       5.488       5.330       5.156       5.003    
        4.857       4.673       4.471       4.304       4.121       3.917       3.674       3.350       2.974       2.711    
        2.526       2.352       2.217       2.059       1.837       1.581       1.370       1.020      0.5224       0.000    
  42    10.00       9.907       9.806       9.720       9.609       9.476       9.329       9.168       9.023       8.882    
        8.685       8.405       8.047       7.649       7.298       7.052       6.836       6.671       6.534       6.362    
        6.203       6.088       5.983       5.894       5.777       5.674       5.551       5.370       5.185       5.048    
        4.917       4.719       4.501       4.344       4.187       3.958       3.645       3.259       2.924       2.722    
        2.575       2.427       2.259       2.055       1.825       1.618       1.405       1.062      0.5466       0.000    
  43    10.00       9.908       9.816       9.727       9.640       9.522       9.374       9.216       9.059       8.859    
        8.579       8.258       7.892       7.509       7.236       7.030       6.826       6.655       6.490       6.320    
        6.171       6.063       5.984       5.915       5.812       5.699       5.580       5.404       5.237       5.124    
        4.958       4.740       4.535       4.380       4.199       3.919       3.552       3.179       2.946       2.786    
        2.630       2.470       2.265       2.044       1.834       1.634       1.443       1.059      0.4771       0.000    
  44    10.00       9.902       9.818       9.742       9.645       9.555       9.430       9.238       9.027       8.752    
        8.469       8.131       7.732       7.453       7.241       7.014       6.793       6.599       6.420       6.269    
        6.161       6.075       6.000       5.928       5.839       5.725       5.585       5.445       5.316       5.173    
        5.014       4.816       4.585       4.365       4.153       3.867       3.484       3.161       2.974       2.820    
        2.670       2.494       2.288       2.091       1.871       1.650       1.400      0.9068      0.4008       0.000    
  45    10.00       9.902       9.833       9.745       9.654       9.574       9.393       9.175       8.927       8.656    
        8.418       8.014       7.642       7.433       7.218       6.971       6.722       6.523       6.366       6.256    
        6.179       6.103       6.024       5.938       5.842       5.738       5.621       5.502       5.396       5.249    
        5.058       4.847       4.613       4.348       4.107       3.796       3.436       3.181       3.027       2.872    
        2.678       2.474       2.294       2.116       1.923       1.685       1.262      0.7603      0.3851       0.000    
  46    10.00       9.919       9.845       9.752       9.652       9.501       9.311       9.130       8.904       8.639    
        8.297       7.925       7.626       7.366       7.146       6.902       6.654       6.499       6.380       6.279    
        6.208       6.137       6.044       5.941       5.847       5.754       5.658       5.552       5.446       5.312    
        5.134       4.913       4.653       4.354       4.018       3.684       3.421       3.247       3.075       2.897    
        2.673       2.461       2.282       2.138       1.932       1.600       1.132      0.7163      0.3639       0.000    
  47    10.00       9.937       9.869       9.771       9.599       9.417       9.254       9.100       8.897       8.566    
        8.197       7.852       7.564       7.346       7.110       6.840       6.626       6.488       6.394       6.311    
        6.235       6.153       6.061       5.960       5.866       5.785       5.700       5.595       5.473       5.340    
        5.183       4.987       4.652       4.255       3.939       3.693       3.464       3.315       3.157       2.909    
        2.643       2.420       2.252       2.135       1.877       1.480       1.051      0.6893      0.3538       0.000    
  48    10.00       9.945       9.873       9.727       9.553       9.402       9.228       9.072       8.856       8.508    
        8.106       7.793       7.560       7.299       7.025       6.783       6.622       6.487       6.397       6.336    
        6.259       6.161       6.060       5.972       5.897       5.828       5.747       5.631       5.487       5.332    
        5.169       4.945       4.599       4.273       3.997       3.751       3.537       3.368       3.165       2.868    
        2.586       2.407       2.267       2.048       1.702       1.347       1.004      0.6943      0.3736       0.000    
  49    10.00       9.942       9.838       9.709       9.566       9.390       9.216       9.041       8.773       8.405    
        8.058       7.765       7.484       7.237       7.026       6.798       6.590       6.468       6.409       6.349    
        6.278       6.167       6.055       5.981       5.919       5.866       5.774       5.635       5.471       5.323    
        5.153       4.879       4.586       4.367       4.114       3.827       3.567       3.363       3.128       2.812    
        2.584       2.427       2.218       1.888       1.581       1.291      0.9925      0.6943      0.3724       0.000    
  50    10.00       9.934       9.827       9.694       9.565       9.401       9.205       8.987       8.705       8.414    
        8.052       7.685       7.425       7.228       7.049       6.792       6.562       6.471       6.417       6.358    
        6.286       6.172       6.057       5.986       5.933       5.883       5.780       5.620       5.455       5.314    
        5.139       4.857       4.630       4.434       4.169       3.884       3.613       3.333       3.012       2.747    
        2.630       2.451       2.130       1.799       1.569       1.289       1.006      0.6801      0.3032       0.000    

 HEAD WILL BE SAVED ON UNIT   51 AT END OF TIME STEP  62, STRESS PERIOD    2

 DRAWDOWN WILL BE SAVED ON UNIT   52 AT END OF TIME STEP  62, STRESS PERIOD    2
1
  VOLUMETRIC BUDGET FOR ENTIRE MODEL AT END OF TIME STEP 62 IN STRESS PERIOD   2
  ------------------------------------------------------------------------------

     CUMULATIVE VOLUMES      L**3       RATES FOR THIS TIME STEP      L**3/T
     ------------------                 ------------------------

           IN:                                      IN:
           ---                                      ---
             STORAGE =       29934.0977               STORAGE =         440.3430
       CONSTANT HEAD =       38543.9844         CONSTANT HEAD =         647.0228
               WELLS =           0.0000                 WELLS =           0.0000

            TOTAL IN =       68478.0781              TOTAL IN =        1087.3658

          OUT:                                     OUT:
          ----                                     ----
             STORAGE =       9.4320E-03               STORAGE =           0.0000
       CONSTANT HEAD =       37478.0625         CONSTANT HEAD =         587.3657
               WELLS =       31000.0000                 WELLS =         500.0000

           TOTAL OUT =       68478.0703             TOTAL OUT =        1087.3657

            IN - OUT =       7.8125E-03              IN - OUT =       1.2207E-04

 PERCENT DISCREPANCY =           0.00     PERCENT DISCREPANCY =           0.00






          TIME SUMMARY AT END OF TIME STEP  62 IN STRESS PERIOD    2
                    SECONDS     MINUTES      HOURS       DAYS        YEARS
                    -----------------------------------------------------------
   TIME STEP LENGTH  86400.      1440.0      24.000      1.0000     2.73785E-03
 STRESS PERIOD TIME 5.35680E+06  89280.      1488.0      62.000     0.16975    
         TOTAL TIME 5.44320E+06  90720.      1512.0      63.000     0.17248    
1
 
 SOLVING FOR HEAD 

 OUTPUT CONTROL FOR STRESS PERIOD    2   TIME STEP  63
    SAVE HEAD FOR ALL LAYERS
    SAVE DRAWDOWN FOR ALL LAYERS
    SAVE BUDGET
    PRINT HEAD FOR ALL LAYERS
    PRINT BUDGET
 UBDSV1 SAVING "         STORAGE" ON UNIT  53 AT TIME STEP 63, STRESS PERIOD   2
 UBDSV2 SAVING "   CONSTANT HEAD" ON UNIT  53 AT TIME STEP 63, STRESS PERIOD   2
 UBDSV1 SAVING "FLOW RIGHT FACE " ON UNIT  53 AT TIME STEP 63, STRESS PERIOD   2
 UBDSV1 SAVING "FLOW FRONT FACE " ON UNIT  53 AT TIME STEP 63, STRESS PERIOD   2
1
              HEAD IN LAYER   1 AT END OF TIME STEP  63 IN STRESS PERIOD    2
  ---------------------------------------------------------------------------

            1           2           3           4           5           6           7           8           9          10
           11          12          13          14          15          16          17          18          19          20
           21          22          23          24          25          26          27          28          29          30
           31          32          33          34          35          36          37          38          39          40
           41          42          43          44          45          46          47          48          49          50
 ........................................................................................................................
   1    10.00       9.956       9.893       9.822       9.752       9.673       9.599       9.525       9.432       9.341    
        9.270       9.201       9.130       9.062       8.950       8.817       8.667       8.550       8.489       8.419    
        8.335       8.268       8.203       8.128       8.029       7.832       7.611       7.457       7.306       7.165    
        6.981       6.686       6.309       5.890       5.456       4.994       4.537       4.156       3.659       3.118    
        2.674       2.250       1.779       1.385       1.142      0.9366      0.7739      0.6560      0.4404       0.000    
   2    10.00       9.955       9.898       9.826       9.756       9.686       9.612       9.515       9.413       9.338    
        9.277       9.218       9.159       9.073       8.946       8.806       8.665       8.549       8.487       8.408    
        8.324       8.274       8.221       8.143       8.016       7.824       7.623       7.464       7.312       7.175    
        6.969       6.661       6.265       5.788       5.324       4.877       4.481       4.113       3.607       3.084    
        2.639       2.162       1.733       1.424       1.196       1.019      0.8179      0.6385      0.3562       0.000    
   3    10.00       9.949       9.892       9.828       9.766       9.695       9.600       9.498       9.426       9.358    
        9.290       9.236       9.184       9.102       8.971       8.798       8.645       8.551       8.478       8.398    
        8.329       8.277       8.222       8.117       7.979       7.808       7.634       7.509       7.331       7.152    
        6.893       6.527       6.073       5.610       5.200       4.785       4.397       4.002       3.476       2.992    
        2.610       2.172       1.780       1.498       1.272       1.089      0.8508      0.5706      0.2587       0.000    
   4    10.00       9.949       9.893       9.831       9.761       9.678       9.580       9.502       9.440       9.371    
        9.311       9.266       9.207       9.114       8.987       8.803       8.643       8.555       8.473       8.402    
        8.328       8.262       8.193       8.082       7.946       7.792       7.633       7.479       7.321       7.117    
        6.792       6.305       5.823       5.472       5.132       4.704       4.239       3.775       3.355       2.991    
        2.635       2.229       1.862       1.607       1.354       1.122      0.8264      0.5131      0.2458       0.000    
   5    10.00       9.945       9.889       9.819       9.748       9.672       9.583       9.515       9.451       9.387    
        9.334       9.290       9.214       9.104       8.964       8.796       8.661       8.564       8.483       8.386    
        8.297       8.227       8.142       8.034       7.912       7.753       7.595       7.453       7.295       7.044    
        6.575       6.028       5.642       5.368       5.032       4.570       4.090       3.670       3.357       3.029    
        2.681       2.309       1.946       1.710       1.438       1.104      0.7521      0.4575      0.2301       0.000    
   6    10.00       9.938       9.871       9.812       9.748       9.665       9.590       9.532       9.464       9.403    
        9.354       9.300       9.203       9.080       8.957       8.816       8.680       8.568       8.460       8.348    
        8.258       8.175       8.101       8.004       7.847       7.691       7.564       7.419       7.198       6.817    
        6.297       5.800       5.479       5.244       4.940       4.483       4.007       3.656       3.393       3.097    
        2.781       2.455       2.085       1.769       1.409       1.041      0.6641      0.3947      0.2173       0.000    
   7    10.00       9.925       9.861       9.806       9.739       9.670       9.603       9.548       9.486       9.426    
        9.365       9.284       9.177       9.061       8.945       8.834       8.690       8.537       8.413       8.303    
        8.209       8.128       8.064       7.941       7.781       7.650       7.520       7.323       6.964       6.475    
        5.979       5.579       5.363       5.153       4.801       4.372       4.054       3.716       3.431       3.240    
        2.942       2.593       2.159       1.709       1.306      0.9037      0.5719      0.3974      0.2046       0.000    
   8    10.00       9.925       9.866       9.804       9.737       9.676       9.617       9.561       9.504       9.446    
        9.366       9.262       9.157       9.047       8.939       8.814       8.634       8.473       8.371       8.265    
        8.160       8.091       7.995       7.862       7.721       7.584       7.365       7.057       6.602       6.173    
        5.804       5.498       5.302       5.062       4.685       4.333       4.046       3.798       3.579       3.360    
        3.071       2.634       2.101       1.621       1.202      0.8456      0.6052      0.3892      0.1866       0.000    
   9    10.00       9.937       9.865       9.798       9.748       9.696       9.638       9.579       9.515       9.453    
        9.360       9.242       9.127       9.017       8.901       8.754       8.578       8.430       8.320       8.211    
        8.118       8.028       7.898       7.771       7.640       7.469       7.151       6.737       6.312       5.999    
        5.697       5.446       5.231       4.932       4.584       4.290       4.074       3.893       3.698       3.459    
        3.112       2.636       2.093       1.617       1.210      0.8640      0.6105      0.3925      0.2007       0.000    
  10    10.00       9.934       9.859       9.804       9.757       9.708       9.655       9.604       9.530       9.438    
        9.325       9.201       9.091       8.988       8.868       8.686       8.501       8.372       8.271       8.169    
        8.081       7.957       7.813       7.669       7.516       7.266       6.857       6.428       6.067       5.817    
        5.623       5.412       5.151       4.849       4.527       4.283       4.120       3.963       3.753       3.479    
        3.082       2.590       2.095       1.689       1.308      0.9503      0.6294      0.4168      0.2240       0.000    
  11    10.00       9.920       9.859       9.813       9.768       9.725       9.677       9.605       9.504       9.400    
        9.287       9.166       9.064       8.939       8.775       8.601       8.449       8.335       8.242       8.139    
        8.007       7.848       7.652       7.487       7.229       6.879       6.531       6.217       5.916       5.731    
        5.582       5.313       5.028       4.779       4.534       4.348       4.180       3.981       3.723       3.391    
        3.018       2.639       2.165       1.767       1.405       1.051      0.7070      0.4093      0.1717       0.000    
  12    10.00       9.922       9.866       9.818       9.779       9.735       9.679       9.579       9.461       9.362    
        9.256       9.129       9.005       8.856       8.712       8.551       8.405       8.306       8.203       8.059    
        7.839       7.601       7.369       7.138       6.793       6.529       6.333       6.026       5.779       5.641    
        5.473       5.222       4.989       4.759       4.585       4.408       4.197       3.954       3.641       3.310    
        2.996       2.654       2.198       1.807       1.468       1.097      0.7434      0.3859      0.1281       0.000    
  13    10.00       9.937       9.884       9.833       9.786       9.734       9.645       9.529       9.418       9.317    
        9.198       9.073       8.944       8.789       8.630       8.479       8.372       8.249       8.112       7.827    
        7.494       7.242       6.986       6.678       6.414       6.288       6.067       5.798       5.664       5.538    
        5.339       5.125       4.941       4.773       4.624       4.460       4.210       3.884       3.584       3.273    
        2.975       2.622       2.134       1.771       1.480       1.087      0.6827      0.3328      0.1019       0.000    
  14    10.00       9.951       9.906       9.851       9.787       9.700       9.584       9.469       9.368       9.257    
        9.134       9.018       8.871       8.707       8.567       8.436       8.273       8.112       7.840       7.415    
        7.095       6.851       6.511       6.271       6.148       6.035       5.818       5.652       5.522       5.391    
        5.220       5.067       4.938       4.794       4.635       4.474       4.192       3.839       3.531       3.212    
        2.909       2.471       2.007       1.723       1.393       1.039      0.6826      0.3077      8.7655E-02   0.000    
  15    10.00       9.961       9.913       9.853       9.776       9.649       9.508       9.406       9.312       9.202    
        9.106       8.986       8.797       8.611       8.481       8.276       8.069       7.900       7.482       7.019    
        6.731       6.405       6.119       6.030       5.966       5.823       5.639       5.484       5.384       5.284    
        5.154       5.044       4.939       4.812       4.657       4.463       4.134       3.745       3.423       3.134    
        2.810       2.371       2.007       1.653       1.261      0.9499      0.6092      0.2818      9.5341E-02   0.000    
  16    10.00       9.968       9.917       9.842       9.728       9.578       9.452       9.371       9.287       9.176    
        9.060       8.883       8.647       8.467       8.280       8.043       7.905       7.562       6.976       6.571    
        6.319       6.041       5.939       5.888       5.770       5.586       5.442       5.366       5.319       5.233    
        5.125       5.025       4.937       4.810       4.623       4.360       3.987       3.654       3.403       3.101    
        2.726       2.295       1.906       1.521       1.184      0.8404      0.5459      0.2843      0.1015       0.000    
  17    10.00       9.963       9.901       9.801       9.673       9.517       9.405       9.335       9.235       9.117    
        8.910       8.661       8.463       8.279       8.038       7.802       7.511       6.964       6.477       6.226    
        6.029       5.882       5.812       5.690       5.508       5.377       5.336       5.313       5.266       5.180    
        5.086       4.999       4.906       4.778       4.509       4.168       3.882       3.668       3.427       3.064    
        2.592       2.172       1.811       1.451       1.061      0.7005      0.4650      0.2579      0.1074       0.000    
  18    10.00       9.948       9.868       9.752       9.583       9.452       9.373       9.267       9.147       8.969    
        8.705       8.498       8.312       8.032       7.717       7.392       6.985       6.510       6.214       6.022    
        5.873       5.746       5.632       5.468       5.342       5.303       5.285       5.262       5.202       5.120    
        5.041       4.954       4.836       4.638       4.363       4.091       3.870       3.696       3.394       2.949    
        2.495       2.058       1.695       1.357      0.9839      0.6457      0.3928      0.2154      0.1005       0.000    
  19    10.00       9.930       9.838       9.669       9.501       9.424       9.324       9.187       9.040       8.838    
        8.604       8.398       8.100       7.701       7.373       7.054       6.618       6.234       6.046       5.922    
        5.765       5.604       5.475       5.338       5.271       5.252       5.229       5.185       5.113       5.043    
        4.967       4.872       4.718       4.518       4.298       4.070       3.883       3.661       3.232       2.795    
        2.437       1.991       1.599       1.270      0.9034      0.5816      0.3534      0.2044      0.1023       0.000    
  20    10.00       9.910       9.769       9.593       9.469       9.381       9.271       9.123       8.948       8.760    
        8.516       8.210       7.806       7.439       7.149       6.769       6.374       6.178       6.020       5.850    
        5.680       5.512       5.353       5.252       5.207       5.170       5.119       5.073       5.004       4.942    
        4.869       4.774       4.622       4.450       4.255       4.063       3.866       3.522       3.074       2.704    
        2.308       1.876       1.528       1.200      0.8586      0.5225      0.3069      0.2062      0.1041       0.000    
  21    10.00       9.857       9.712       9.568       9.439       9.340       9.218       9.030       8.852       8.670    
        8.352       7.965       7.587       7.286       6.975       6.611       6.329       6.158       5.977       5.792    
        5.584       5.393       5.254       5.151       5.074       5.006       4.964       4.923       4.853       4.805    
        4.755       4.658       4.531       4.385       4.214       4.032       3.755       3.408       3.022       2.584    
        2.187       1.781       1.480       1.179      0.7463      0.4413      0.3145      0.2295      0.1103       0.000    
  22    10.00       9.836       9.666       9.525       9.415       9.296       9.117       8.930       8.771       8.530    
        8.194       7.791       7.464       7.214       6.874       6.538       6.301       6.125       5.945       5.722    
        5.483       5.289       5.108       4.949       4.846       4.797       4.764       4.709       4.686       4.659    
        4.621       4.548       4.454       4.321       4.165       3.990       3.702       3.359       2.906       2.475    
        2.131       1.764       1.430      0.9837      0.6147      0.4424      0.3327      0.2213      8.7904E-02   0.000    
  23    10.00       9.799       9.632       9.516       9.395       9.218       9.016       8.869       8.668       8.417    
        8.075       7.717       7.465       7.149       6.782       6.490       6.289       6.128       5.925       5.657    
        5.402       5.174       4.935       4.651       4.399       4.350       4.423       4.459       4.507       4.523    
        4.507       4.459       4.379       4.273       4.125       3.942       3.676       3.249       2.773       2.419    
        2.090       1.672       1.192      0.8043      0.5998      0.4541      0.3323      0.2108      9.8177E-02   0.000    
  24    10.00       9.771       9.650       9.516       9.345       9.150       8.991       8.831       8.634       8.344    
        8.030       7.752       7.474       7.094       6.707       6.475       6.310       6.142       5.897       5.626    
        5.373       5.111       4.745       4.092       3.108       3.439       3.890       4.174       4.326       4.387    
        4.405       4.375       4.321       4.213       4.070       3.886       3.556       3.106       2.703       2.327    
        1.927       1.483       1.058      0.7678      0.5970      0.4516      0.3247      0.2460      0.1354       0.000    
  25    10.00       9.800       9.673       9.510       9.331       9.156       8.993       8.841       8.600       8.312    
        8.049       7.781       7.442       7.025       6.725       6.514       6.329       6.131       5.903       5.653    
        5.379       5.118       4.451       3.059     -9.8984E-02   2.464       3.433       3.919       4.176       4.293    
        4.326       4.314       4.259       4.134       3.983       3.758       3.416       2.984       2.620       2.213    
        1.751       1.334      0.9861      0.7602      0.6212      0.4857      0.3550      0.2616      0.1708       0.000    
  26    10.00       9.829       9.708       9.534       9.349       9.196       9.028       8.836       8.590       8.365    
        8.138       7.783       7.355       7.001       6.782       6.592       6.372       6.116       5.874       5.659    
        5.448       5.161       4.546       3.536       2.474       2.994       3.555       3.909       4.127       4.252    
        4.282       4.267       4.194       4.072       3.926       3.682       3.235       2.835       2.527       2.029    
        1.527       1.181      0.9767      0.8248      0.6770      0.5268      0.3906      0.2862      0.1709       0.000    
  27    10.00       9.866       9.720       9.572       9.407       9.230       9.063       8.878       8.658       8.444    
        8.141       7.722       7.352       7.064       6.871       6.657       6.369       6.087       5.891       5.719    
        5.543       5.247       4.786       4.228       3.635       3.654       3.852       4.037       4.177       4.251    
        4.263       4.239       4.167       4.042       3.844       3.462       3.037       2.723       2.246       1.754    
        1.393       1.167       1.018      0.8892      0.7531      0.5798      0.4176      0.3126      0.2101       0.000    
  28    10.00       9.879       9.755       9.613       9.464       9.297       9.124       8.938       8.731       8.485    
        8.114       7.735       7.415       7.138       6.938       6.722       6.476       6.199       5.938       5.768    
        5.610       5.398       5.090       4.673       4.298       4.130       4.141       4.225       4.260       4.282    
        4.267       4.227       4.140       3.962       3.666       3.264       2.901       2.467       1.994       1.666    
        1.402       1.215       1.067      0.9396      0.7996      0.6338      0.4732      0.3556      0.2168       0.000    
  29    10.00       9.884       9.767       9.661       9.517       9.365       9.199       9.013       8.795       8.466    
        8.102       7.771       7.467       7.238       7.009       6.776       6.551       6.330       6.076       5.856    
        5.686       5.507       5.295       5.039       4.698       4.515       4.445       4.414       4.393       4.347    
        4.287       4.202       4.088       3.845       3.486       3.119       2.736       2.296       1.933       1.694    
        1.477       1.271       1.110      0.9853      0.8489      0.6789      0.5134      0.3759      0.2192       0.000    
  30    10.00       9.895       9.798       9.704       9.580       9.440       9.293       9.086       8.815       8.481    
        8.107       7.771       7.517       7.292       7.066       6.840       6.652       6.462       6.234       5.997    
        5.795       5.630       5.446       5.261       5.042       4.843       4.760       4.631       4.551       4.435    
        4.302       4.156       3.986       3.724       3.425       3.073       2.675       2.267       1.999       1.778    
        1.532       1.329       1.174       1.025      0.8716      0.7211      0.5474      0.3920      0.2369       0.000    
  31    10.00       9.913       9.829       9.742       9.652       9.542       9.382       9.140       8.827       8.480    
        8.121       7.808       7.568       7.338       7.137       6.929       6.731       6.586       6.366       6.139    
        5.944       5.773       5.611       5.441       5.299       5.140       4.984       4.835       4.675       4.507    
        4.305       4.105       3.924       3.708       3.408       3.038       2.655       2.316       2.098       1.899    
        1.644       1.410       1.228       1.070      0.9173      0.7576      0.5832      0.4191      0.2307       0.000    
  32    10.00       9.926       9.863       9.787       9.699       9.600       9.443       9.170       8.877       8.562    
        8.183       7.860       7.621       7.405       7.203       7.027       6.853       6.670       6.492       6.276    
        6.070       5.884       5.725       5.566       5.436       5.324       5.151       4.973       4.761       4.532    
        4.314       4.111       3.912       3.701       3.413       3.077       2.755       2.456       2.222       1.998    
        1.761       1.516       1.321       1.137      0.9612      0.8164      0.6376      0.4202      0.2088       0.000    
  33    10.00       9.937       9.885       9.824       9.739       9.627       9.428       9.165       8.920       8.630    
        8.263       7.943       7.697       7.463       7.275       7.125       6.971       6.789       6.591       6.393    
        6.179       5.979       5.792       5.637       5.532       5.421       5.248       5.027       4.807       4.588    
        4.371       4.180       3.976       3.707       3.433       3.127       2.850       2.609       2.365       2.120    
        1.898       1.665       1.451       1.257       1.061      0.8884      0.6873      0.4304      0.2028       0.000    
  34    10.00       9.943       9.908       9.855       9.752       9.599       9.407       9.213       8.963       8.650    
        8.328       8.017       7.755       7.522       7.353       7.234       7.071       6.888       6.673       6.486    
        6.290       6.056       5.869       5.725       5.618       5.485       5.285       5.087       4.859       4.619    
        4.435       4.262       4.077       3.810       3.524       3.242       2.986       2.769       2.517       2.269    
        2.055       1.841       1.612       1.413       1.205       1.002      0.7450      0.4788      0.2525       0.000    
  35    10.00       9.953       9.913       9.847       9.720       9.558       9.419       9.255       9.026       8.691    
        8.349       8.063       7.800       7.599       7.453       7.320       7.151       6.950       6.744       6.536    
        6.353       6.145       5.954       5.819       5.702       5.571       5.357       5.116       4.874       4.647    
        4.508       4.345       4.143       3.939       3.691       3.389       3.127       2.950       2.692       2.412    
        2.210       1.994       1.777       1.581       1.347       1.120      0.8606      0.5745      0.2871       0.000    
  36    10.00       9.950       9.895       9.820       9.694       9.541       9.417       9.265       9.037       8.725    
        8.371       8.063       7.865       7.703       7.566       7.403       7.201       7.006       6.788       6.533    
        6.340       6.175       6.011       5.893       5.779       5.622       5.396       5.145       4.898       4.686    
        4.547       4.409       4.220       4.024       3.811       3.535       3.270       3.072       2.845       2.541    
        2.313       2.095       1.873       1.711       1.486       1.233      0.9740      0.6748      0.3433       0.000    
  37    10.00       9.936       9.874       9.794       9.667       9.528       9.388       9.242       9.033       8.700    
        8.343       8.088       7.964       7.811       7.632       7.470       7.243       7.008       6.744       6.491    
        6.338       6.207       6.053       5.931       5.799       5.614       5.404       5.145       4.923       4.759    
        4.611       4.457       4.261       4.088       3.865       3.601       3.390       3.197       2.944       2.642    
        2.369       2.155       1.977       1.795       1.582       1.347       1.098      0.7621      0.4130       0.000    
  38    10.00       9.929       9.850       9.764       9.647       9.512       9.358       9.205       8.985       8.677    
        8.404       8.198       8.040       7.902       7.704       7.458       7.204       6.925       6.643       6.477    
        6.357       6.200       6.056       5.950       5.809       5.605       5.352       5.118       4.983       4.848    
        4.683       4.508       4.317       4.139       3.920       3.675       3.484       3.288       2.986       2.670    
        2.432       2.233       2.053       1.870       1.680       1.453       1.195      0.8723      0.4527       0.000    
  39    10.00       9.910       9.830       9.745       9.631       9.480       9.315       9.154       8.954       8.706    
        8.492       8.339       8.162       7.968       7.686       7.371       7.059       6.762       6.590       6.481    
        6.323       6.156       6.051       5.953       5.821       5.588       5.332       5.170       5.048       4.908    
        4.733       4.563       4.369       4.177       3.990       3.784       3.564       3.335       3.024       2.710    
        2.460       2.261       2.120       1.975       1.767       1.535       1.276      0.9246      0.4528       0.000    
  40    10.00       9.895       9.818       9.733       9.617       9.460       9.290       9.128       8.958       8.752    
        8.576       8.445       8.230       7.923       7.569       7.218       6.902       6.697       6.580       6.453    
        6.281       6.136       6.041       5.926       5.773       5.585       5.410       5.244       5.099       4.967    
        4.805       4.614       4.416       4.233       4.059       3.851       3.613       3.382       3.043       2.701    
        2.474       2.308       2.161       2.036       1.826       1.568       1.329      0.9608      0.4744       0.000    
  41    10.00       9.903       9.813       9.719       9.591       9.449       9.300       9.156       8.992       8.808    
        8.642       8.484       8.198       7.811       7.420       7.102       6.852       6.677       6.558       6.414    
        6.240       6.116       6.013       5.891       5.755       5.617       5.485       5.327       5.153       5.001    
        4.854       4.671       4.469       4.302       4.119       3.915       3.672       3.349       2.973       2.710    
        2.525       2.352       2.216       2.059       1.837       1.581       1.370       1.020      0.5223       0.000    
  42    10.00       9.906       9.806       9.719       9.608       9.475       9.328       9.167       9.021       8.880    
        8.682       8.402       8.045       7.647       7.295       7.049       6.833       6.668       6.530       6.359    
        6.199       6.085       5.980       5.892       5.774       5.671       5.549       5.368       5.183       5.046    
        4.915       4.716       4.499       4.342       4.185       3.956       3.644       3.258       2.923       2.721    
        2.574       2.427       2.259       2.054       1.824       1.618       1.405       1.062      0.5464       0.000    
  43    10.00       9.908       9.816       9.727       9.639       9.521       9.374       9.215       9.057       8.857    
        8.577       8.256       7.890       7.506       7.233       7.027       6.824       6.652       6.487       6.317    
        6.168       6.061       5.982       5.912       5.809       5.696       5.578       5.401       5.235       5.122    
        4.956       4.737       4.533       4.378       4.197       3.917       3.551       3.178       2.945       2.785    
        2.629       2.469       2.265       2.043       1.833       1.634       1.443       1.059      0.4770       0.000    
  44    10.00       9.902       9.818       9.741       9.645       9.555       9.430       9.237       9.026       8.751    
        8.468       8.129       7.730       7.451       7.239       7.012       6.790       6.596       6.417       6.266    
        6.159       6.072       5.998       5.926       5.836       5.722       5.582       5.443       5.314       5.170    
        5.011       4.814       4.583       4.363       4.152       3.866       3.483       3.160       2.973       2.819    
        2.669       2.493       2.288       2.090       1.870       1.649       1.399      0.9066      0.4007       0.000    
  45    10.00       9.902       9.833       9.745       9.654       9.573       9.392       9.174       8.926       8.655    
        8.417       8.012       7.640       7.432       7.216       6.969       6.719       6.521       6.364       6.254    
        6.177       6.100       6.022       5.935       5.840       5.735       5.618       5.500       5.394       5.247    
        5.056       4.845       4.611       4.346       4.105       3.795       3.435       3.180       3.026       2.871    
        2.677       2.474       2.293       2.115       1.923       1.685       1.262      0.7601      0.3850       0.000    
  46    10.00       9.919       9.845       9.752       9.652       9.501       9.310       9.130       8.903       8.638    
        8.295       7.923       7.625       7.364       7.144       6.900       6.652       6.497       6.378       6.277    
        6.206       6.135       6.042       5.939       5.844       5.751       5.656       5.550       5.444       5.310    
        5.132       4.911       4.651       4.352       4.017       3.682       3.420       3.246       3.074       2.896    
        2.672       2.460       2.281       2.138       1.931       1.599       1.132      0.7161      0.3638       0.000    
  47    10.00       9.937       9.869       9.771       9.599       9.416       9.253       9.099       8.896       8.565    
        8.196       7.850       7.563       7.344       7.108       6.838       6.624       6.486       6.392       6.309    
        6.233       6.150       6.059       5.957       5.863       5.783       5.698       5.593       5.471       5.338    
        5.181       4.985       4.650       4.254       3.938       3.692       3.463       3.313       3.156       2.909    
        2.642       2.419       2.251       2.135       1.876       1.480       1.051      0.6892      0.3538       0.000    
  48    10.00       9.945       9.873       9.727       9.553       9.401       9.227       9.071       8.855       8.507    
        8.105       7.791       7.558       7.298       7.023       6.781       6.620       6.485       6.395       6.334    
        6.257       6.159       6.058       5.970       5.894       5.826       5.745       5.629       5.485       5.330    
        5.167       4.943       4.597       4.272       3.995       3.750       3.536       3.367       3.164       2.868    
        2.585       2.406       2.266       2.047       1.702       1.347       1.004      0.6942      0.3735       0.000    
  49    10.00       9.942       9.838       9.708       9.566       9.390       9.215       9.040       8.772       8.404    
        8.057       7.764       7.483       7.236       7.025       6.796       6.588       6.466       6.407       6.347    
        6.276       6.165       6.053       5.979       5.917       5.863       5.772       5.632       5.469       5.321    
        5.151       4.877       4.584       4.366       4.113       3.825       3.566       3.362       3.128       2.812    
        2.583       2.427       2.218       1.888       1.581       1.291      0.9923      0.6942      0.3723       0.000    
  50    10.00       9.934       9.827       9.694       9.565       9.400       9.205       8.986       8.704       8.413    
        8.051       7.684       7.423       7.226       7.048       6.790       6.560       6.469       6.415       6.356    
        6.284       6.169       6.055       5.984       5.931       5.881       5.778       5.618       5.453       5.312    
        5.137       4.856       4.629       4.433       4.168       3.883       3.612       3.332       3.012       2.747    
        2.629       2.451       2.129       1.798       1.569       1.289       1.006      0.6800      0.3032       0.000    

 HEAD WILL BE SAVED ON UNIT   51 AT END OF TIME STEP  63, STRESS PERIOD    2

 DRAWDOWN WILL BE SAVED ON UNIT   52 AT END OF TIME STEP  63, STRESS PERIOD    2
1
  VOLUMETRIC BUDGET FOR ENTIRE MODEL AT END OF TIME STEP 63 IN STRESS PERIOD   2
  ------------------------------------------------------------------------------

     CUMULATIVE VOLUMES      L**3       RATES FOR THIS TIME STEP      L**3/T
     ------------------                 ------------------------

           IN:                                      IN:
           ---                                      ---
             STORAGE =       30372.3887               STORAGE =         438.2901
       CONSTANT HEAD =       39192.5859         CONSTANT HEAD =         648.6003
               WELLS =           0.0000                 WELLS =           0.0000

            TOTAL IN =       69564.9766              TOTAL IN =        1086.8904

          OUT:                                     OUT:
          ----                                     ----
             STORAGE =       9.4320E-03               STORAGE =           0.0000
       CONSTANT HEAD =       38064.9531         CONSTANT HEAD =         586.8901
               WELLS =       31500.0000                 WELLS =         500.0000

           TOTAL OUT =       69564.9609             TOTAL OUT =        1086.8901

            IN - OUT =       1.5625E-02              IN - OUT =       2.4414E-04

 PERCENT DISCREPANCY =           0.00     PERCENT DISCREPANCY =           0.00






          TIME SUMMARY AT END OF TIME STEP  63 IN STRESS PERIOD    2
                    SECONDS     MINUTES      HOURS       DAYS        YEARS
                    -----------------------------------------------------------
   TIME STEP LENGTH  86400.      1440.0      24.000      1.0000     2.73785E-03
 STRESS PERIOD TIME 5.44320E+06  90720.      1512.0      63.000     0.17248    
         TOTAL TIME 5.52960E+06  92160.      1536.0      64.000     0.17522    
1
 
 SOLVING FOR HEAD 

 OUTPUT CONTROL FOR STRESS PERIOD    2   TIME STEP  64
    SAVE HEAD FOR ALL LAYERS
    SAVE DRAWDOWN FOR ALL LAYERS
    SAVE BUDGET
    PRINT HEAD FOR ALL LAYERS
    PRINT BUDGET
 UBDSV1 SAVING "         STORAGE" ON UNIT  53 AT TIME STEP 64, STRESS PERIOD   2
 UBDSV2 SAVING "   CONSTANT HEAD" ON UNIT  53 AT TIME STEP 64, STRESS PERIOD   2
 UBDSV1 SAVING "FLOW RIGHT FACE " ON UNIT  53 AT TIME STEP 64, STRESS PERIOD   2
 UBDSV1 SAVING "FLOW FRONT FACE " ON UNIT  53 AT TIME STEP 64, STRESS PERIOD   2
1
              HEAD IN LAYER   1 AT END OF TIME STEP  64 IN STRESS PERIOD    2
  ---------------------------------------------------------------------------

            1           2           3           4           5           6           7           8           9          10
           11          12          13          14          15          16          17          18          19          20
           21          22          23          24          25          26          27          28          29          30
           31          32          33          34          35          36          37          38          39          40
           41          42          43          44          45          46          47          48          49          50
 ........................................................................................................................
   1    10.00       9.956       9.893       9.821       9.752       9.673       9.598       9.524       9.431       9.339    
        9.268       9.199       9.128       9.059       8.948       8.814       8.664       8.546       8.486       8.415    
        8.331       8.265       8.199       8.124       8.025       7.828       7.607       7.453       7.302       7.161    
        6.977       6.682       6.305       5.887       5.453       4.991       4.534       4.153       3.657       3.116    
        2.672       2.248       1.778       1.384       1.141      0.9358      0.7732      0.6555      0.4400       0.000    
   2    10.00       9.955       9.898       9.826       9.755       9.685       9.611       9.513       9.411       9.336    
        9.275       9.216       9.157       9.071       8.943       8.803       8.662       8.546       8.483       8.405    
        8.320       8.270       8.217       8.139       8.012       7.820       7.619       7.460       7.308       7.170    
        6.965       6.657       6.261       5.784       5.321       4.874       4.478       4.110       3.605       3.082    
        2.637       2.160       1.732       1.423       1.195       1.019      0.8172      0.6380      0.3560       0.000    
   3    10.00       9.949       9.892       9.828       9.766       9.695       9.599       9.496       9.424       9.357    
        9.289       9.234       9.182       9.099       8.969       8.796       8.642       8.548       8.474       8.394    
        8.326       8.273       8.219       8.114       7.975       7.804       7.629       7.504       7.327       7.148    
        6.889       6.523       6.069       5.607       5.197       4.781       4.394       3.999       3.473       2.989    
        2.608       2.170       1.779       1.497       1.271       1.089      0.8501      0.5701      0.2585       0.000    
   4    10.00       9.949       9.893       9.831       9.760       9.678       9.579       9.501       9.438       9.369    
        9.309       9.264       9.205       9.112       8.985       8.800       8.640       8.552       8.470       8.398    
        8.324       8.259       8.189       8.079       7.942       7.788       7.629       7.475       7.317       7.113    
        6.787       6.301       5.819       5.468       5.129       4.700       4.235       3.771       3.352       2.988    
        2.632       2.227       1.860       1.606       1.353       1.121      0.8257      0.5127      0.2456       0.000    
   5    10.00       9.945       9.889       9.818       9.747       9.671       9.582       9.514       9.450       9.385    
        9.333       9.289       9.212       9.102       8.962       8.793       8.658       8.561       8.480       8.383    
        8.294       8.223       8.138       8.030       7.907       7.749       7.591       7.448       7.290       7.040    
        6.570       6.023       5.637       5.363       5.028       4.566       4.086       3.666       3.354       3.026    
        2.679       2.307       1.944       1.709       1.437       1.103      0.7515      0.4571      0.2299       0.000    
   6    10.00       9.937       9.871       9.812       9.747       9.664       9.589       9.531       9.463       9.402    
        9.352       9.298       9.201       9.078       8.955       8.814       8.677       8.565       8.457       8.344    
        8.254       8.171       8.097       7.999       7.842       7.686       7.559       7.414       7.193       6.812    
        6.292       5.795       5.474       5.238       4.935       4.478       4.003       3.652       3.389       3.094    
        2.778       2.453       2.083       1.768       1.408       1.040      0.6636      0.3943      0.2171       0.000    
   7    10.00       9.925       9.860       9.806       9.738       9.669       9.602       9.547       9.484       9.424    
        9.364       9.282       9.175       9.059       8.942       8.831       8.687       8.534       8.409       8.299    
        8.205       8.124       8.060       7.937       7.776       7.645       7.515       7.318       6.959       6.469    
        5.974       5.573       5.357       5.148       4.796       4.367       4.049       3.712       3.427       3.236    
        2.938       2.591       2.157       1.707       1.305      0.9028      0.5714      0.3971      0.2044       0.000    
   8    10.00       9.924       9.866       9.804       9.736       9.675       9.616       9.560       9.503       9.445    
        9.365       9.261       9.155       9.045       8.936       8.811       8.631       8.469       8.367       8.261    
        8.155       8.086       7.990       7.857       7.716       7.579       7.360       7.051       6.596       6.167    
        5.798       5.492       5.295       5.056       4.680       4.328       4.041       3.793       3.575       3.356    
        3.068       2.631       2.099       1.619       1.201      0.8448      0.6046      0.3888      0.1864       0.000    
   9    10.00       9.936       9.865       9.797       9.747       9.696       9.637       9.578       9.514       9.452    
        9.359       9.240       9.125       9.014       8.899       8.750       8.575       8.426       8.316       8.207    
        8.113       8.024       7.893       7.766       7.635       7.464       7.145       6.731       6.305       5.992    
        5.690       5.439       5.224       4.926       4.578       4.285       4.068       3.888       3.693       3.455    
        3.108       2.633       2.091       1.615       1.208      0.8631      0.6099      0.3921      0.2005       0.000    
  10    10.00       9.934       9.859       9.803       9.757       9.707       9.654       9.603       9.529       9.437    
        9.323       9.199       9.088       8.985       8.865       8.682       8.498       8.368       8.267       8.164    
        8.077       7.952       7.807       7.663       7.510       7.260       6.850       6.421       6.060       5.809    
        5.616       5.405       5.144       4.842       4.521       4.277       4.114       3.958       3.749       3.474    
        3.078       2.586       2.092       1.687       1.307      0.9493      0.6288      0.4164      0.2238       0.000    
  11    10.00       9.920       9.859       9.813       9.767       9.724       9.676       9.604       9.502       9.399    
        9.285       9.163       9.061       8.936       8.772       8.597       8.445       8.330       8.238       8.134    
        8.002       7.842       7.646       7.481       7.222       6.872       6.523       6.208       5.908       5.723    
        5.574       5.305       5.021       4.772       4.527       4.342       4.174       3.975       3.717       3.386    
        3.014       2.635       2.163       1.765       1.404       1.049      0.7062      0.4089      0.1715       0.000    
  12    10.00       9.922       9.866       9.817       9.778       9.734       9.678       9.577       9.459       9.360    
        9.254       9.126       9.002       8.852       8.708       8.547       8.400       8.301       8.198       8.054    
        7.833       7.594       7.362       7.131       6.784       6.521       6.325       6.018       5.770       5.633    
        5.464       5.213       4.981       4.752       4.578       4.402       4.191       3.949       3.636       3.305    
        2.992       2.650       2.195       1.805       1.466       1.096      0.7426      0.3855      0.1279       0.000    
  13    10.00       9.937       9.884       9.832       9.786       9.733       9.644       9.528       9.416       9.315    
        9.196       9.070       8.941       8.785       8.626       8.475       8.367       8.244       8.107       7.821    
        7.487       7.234       6.978       6.669       6.404       6.279       6.058       5.788       5.654       5.528    
        5.330       5.116       4.933       4.764       4.616       4.453       4.203       3.877       3.579       3.268    
        2.971       2.619       2.131       1.769       1.478       1.085      0.6819      0.3325      0.1018       0.000    
  14    10.00       9.951       9.905       9.851       9.786       9.699       9.583       9.467       9.366       9.254    
        9.131       9.014       8.867       8.703       8.562       8.431       8.268       8.107       7.833       7.407    
        7.087       6.842       6.501       6.260       6.138       6.025       5.807       5.641       5.512       5.381    
        5.210       5.058       4.929       4.785       4.627       4.466       4.185       3.833       3.526       3.207    
        2.904       2.468       2.005       1.721       1.391       1.038      0.6817      0.3074      8.7546E-02   0.000    
  15    10.00       9.961       9.913       9.852       9.775       9.648       9.507       9.404       9.310       9.199    
        9.103       8.982       8.793       8.606       8.476       8.271       8.063       7.893       7.475       7.010    
        6.721       6.395       6.108       6.019       5.955       5.812       5.627       5.473       5.373       5.273    
        5.144       5.034       4.929       4.803       4.648       4.454       4.127       3.738       3.417       3.129    
        2.805       2.367       2.004       1.651       1.259      0.9486      0.6084      0.2814      9.5215E-02   0.000    
  16    10.00       9.968       9.916       9.841       9.728       9.576       9.450       9.368       9.285       9.173    
        9.057       8.879       8.642       8.461       8.274       8.037       7.898       7.554       6.966       6.560    
        6.308       6.029       5.928       5.877       5.758       5.574       5.430       5.354       5.307       5.222    
        5.114       5.015       4.926       4.800       4.613       4.351       3.979       3.647       3.396       3.095    
        2.721       2.292       1.903       1.519       1.183      0.8392      0.5452      0.2839      0.1014       0.000    
  17    10.00       9.963       9.901       9.801       9.672       9.515       9.403       9.332       9.232       9.114    
        8.906       8.656       8.457       8.273       8.031       7.794       7.502       6.954       6.466       6.214    
        6.017       5.870       5.800       5.678       5.496       5.365       5.324       5.301       5.254       5.168    
        5.075       4.988       4.895       4.768       4.500       4.159       3.874       3.661       3.420       3.059    
        2.587       2.169       1.808       1.449       1.060      0.6995      0.4643      0.2575      0.1073       0.000    
  18    10.00       9.948       9.868       9.751       9.582       9.450       9.371       9.264       9.143       8.965    
        8.700       8.492       8.305       8.024       7.708       7.383       6.974       6.498       6.202       6.009    
        5.860       5.733       5.619       5.455       5.329       5.290       5.273       5.250       5.190       5.108    
        5.029       4.943       4.825       4.628       4.353       4.082       3.861       3.688       3.387       2.943    
        2.491       2.055       1.692       1.355      0.9824      0.6447      0.3923      0.2151      0.1004       0.000    
  19    10.00       9.930       9.838       9.668       9.499       9.422       9.322       9.184       9.036       8.833    
        8.598       8.392       8.093       7.692       7.363       7.043       6.607       6.221       6.034       5.909    
        5.752       5.591       5.462       5.325       5.258       5.239       5.217       5.172       5.101       5.031    
        4.955       4.860       4.707       4.508       4.288       4.060       3.874       3.653       3.225       2.789    
        2.432       1.987       1.596       1.268      0.9019      0.5806      0.3528      0.2041      0.1022       0.000    
  20    10.00       9.909       9.768       9.591       9.467       9.379       9.267       9.120       8.944       8.755    
        8.510       8.202       7.797       7.429       7.139       6.757       6.362       6.165       6.007       5.837    
        5.667       5.499       5.340       5.239       5.194       5.157       5.106       5.060       4.992       4.929    
        4.856       4.762       4.610       4.439       4.244       4.054       3.858       3.514       3.068       2.699    
        2.304       1.872       1.525       1.198      0.8572      0.5217      0.3064      0.2058      0.1040       0.000    
  21    10.00       9.856       9.711       9.567       9.436       9.337       9.215       9.026       8.847       8.664    
        8.345       7.957       7.577       7.276       6.964       6.599       6.317       6.146       5.965       5.779    
        5.571       5.380       5.241       5.137       5.061       4.993       4.951       4.910       4.839       4.792    
        4.742       4.645       4.519       4.373       4.203       4.022       3.746       3.400       3.016       2.579    
        2.182       1.778       1.478       1.177      0.7451      0.4407      0.3140      0.2291      0.1101       0.000    
  22    10.00       9.835       9.664       9.523       9.413       9.293       9.113       8.925       8.766       8.523    
        8.187       7.782       7.455       7.204       6.863       6.526       6.288       6.112       5.933       5.709    
        5.469       5.276       5.095       4.936       4.832       4.783       4.751       4.696       4.673       4.645    
        4.608       4.535       4.442       4.309       4.154       3.979       3.693       3.351       2.899       2.470    
        2.127       1.760       1.428      0.9820      0.6138      0.4418      0.3322      0.2210      8.7777E-02   0.000    
  23    10.00       9.798       9.631       9.514       9.393       9.214       9.012       8.864       8.663       8.410    
        8.067       7.708       7.455       7.138       6.771       6.478       6.277       6.115       5.913       5.644    
        5.389       5.160       4.921       4.637       4.385       4.336       4.410       4.445       4.493       4.509    
        4.493       4.446       4.366       4.261       4.113       3.932       3.667       3.241       2.767       2.413    
        2.086       1.669       1.190      0.8030      0.5989      0.4534      0.3318      0.2105      9.8041E-02   0.000    
  24    10.00       9.770       9.648       9.514       9.342       9.146       8.986       8.826       8.628       8.337    
        8.022       7.743       7.464       7.083       6.695       6.463       6.297       6.129       5.884       5.613    
        5.360       5.097       4.732       4.078       3.093       3.424       3.875       4.160       4.312       4.373    
        4.391       4.362       4.308       4.201       4.058       3.875       3.547       3.099       2.696       2.322    
        1.923       1.481       1.057      0.7666      0.5962      0.4509      0.3242      0.2457      0.1352       0.000    
  25    10.00       9.799       9.671       9.508       9.328       9.152       8.989       8.836       8.595       8.305    
        8.041       7.772       7.432       7.014       6.713       6.502       6.317       6.119       5.891       5.639    
        5.365       5.104       4.437       3.045     -0.1146       2.449       3.418       3.904       4.162       4.279    
        4.312       4.301       4.246       4.122       3.971       3.748       3.407       2.977       2.614       2.208    
        1.748       1.331      0.9847      0.7591      0.6204      0.4851      0.3545      0.2613      0.1705       0.000    
  26    10.00       9.828       9.707       9.532       9.346       9.193       9.024       8.831       8.584       8.359    
        8.131       7.774       7.345       6.990       6.770       6.580       6.360       6.103       5.861       5.646    
        5.435       5.147       4.532       3.521       2.459       2.979       3.540       3.894       4.113       4.237    
        4.268       4.253       4.181       4.060       3.914       3.672       3.226       2.829       2.521       2.025    
        1.525       1.179      0.9754      0.8237      0.6762      0.5261      0.3901      0.2858      0.1707       0.000    
  27    10.00       9.866       9.719       9.570       9.404       9.227       9.059       8.873       8.652       8.437    
        8.133       7.713       7.342       7.053       6.859       6.645       6.357       6.075       5.878       5.706    
        5.530       5.233       4.772       4.214       3.621       3.640       3.838       4.023       4.163       4.236    
        4.249       4.225       4.154       4.030       3.833       3.452       3.030       2.716       2.241       1.751    
        1.391       1.165       1.016      0.8881      0.7521      0.5791      0.4171      0.3122      0.2098       0.000    
  28    10.00       9.878       9.754       9.611       9.461       9.294       9.121       8.934       8.726       8.479    
        8.107       7.726       7.405       7.127       6.927       6.711       6.464       6.187       5.925       5.755    
        5.597       5.384       5.077       4.659       4.284       4.115       4.126       4.211       4.246       4.268    
        4.254       4.214       4.128       3.951       3.656       3.256       2.894       2.462       1.991       1.664    
        1.400       1.213       1.066      0.9384      0.7986      0.6330      0.4726      0.3552      0.2166       0.000    
  29    10.00       9.884       9.766       9.660       9.515       9.362       9.196       9.009       8.790       8.459    
        8.095       7.762       7.458       7.228       6.998       6.765       6.539       6.318       6.064       5.843    
        5.673       5.494       5.282       5.025       4.684       4.501       4.430       4.399       4.379       4.334    
        4.274       4.190       4.077       3.835       3.478       3.112       2.730       2.292       1.930       1.691    
        1.475       1.269       1.108      0.9841      0.8479      0.6781      0.5128      0.3755      0.2189       0.000    
  30    10.00       9.894       9.797       9.703       9.578       9.437       9.290       9.083       8.810       8.475    
        8.099       7.762       7.508       7.282       7.056       6.829       6.641       6.450       6.222       5.985    
        5.782       5.617       5.433       5.248       5.029       4.829       4.746       4.617       4.537       4.422    
        4.290       4.145       3.976       3.716       3.418       3.067       2.670       2.263       1.996       1.776    
        1.530       1.328       1.173       1.024      0.8707      0.7203      0.5468      0.3916      0.2366       0.000    
  31    10.00       9.912       9.828       9.741       9.650       9.540       9.380       9.137       8.822       8.474    
        8.114       7.800       7.559       7.329       7.127       6.918       6.720       6.575       6.355       6.127    
        5.932       5.760       5.598       5.428       5.286       5.127       4.971       4.822       4.663       4.495    
        4.295       4.095       3.916       3.701       3.401       3.032       2.651       2.313       2.095       1.896    
        1.642       1.408       1.226       1.069      0.9163      0.7568      0.5826      0.4187      0.2305       0.000    
  32    10.00       9.926       9.862       9.786       9.698       9.599       9.441       9.167       8.873       8.557    
        8.177       7.852       7.612       7.396       7.193       7.018       6.842       6.659       6.481       6.264    
        6.058       5.872       5.712       5.553       5.423       5.312       5.138       4.960       4.749       4.522    
        4.305       4.103       3.904       3.694       3.408       3.073       2.751       2.453       2.219       1.996    
        1.759       1.514       1.320       1.136      0.9602      0.8156      0.6370      0.4198      0.2086       0.000    
  33    10.00       9.936       9.884       9.823       9.738       9.626       9.426       9.162       8.917       8.625    
        8.257       7.936       7.689       7.454       7.266       7.116       6.961       6.779       6.581       6.382    
        6.167       5.967       5.780       5.625       5.520       5.409       5.237       5.016       4.797       4.579    
        4.363       4.173       3.969       3.701       3.428       3.122       2.846       2.606       2.362       2.118    
        1.896       1.663       1.449       1.256       1.060      0.8877      0.6868      0.4301      0.2026       0.000    
  34    10.00       9.943       9.908       9.855       9.751       9.597       9.405       9.211       8.960       8.645    
        8.322       8.010       7.747       7.514       7.345       7.225       7.061       6.878       6.663       6.476    
        6.280       6.045       5.858       5.714       5.607       5.475       5.275       5.077       4.850       4.611    
        4.429       4.256       4.071       3.805       3.519       3.238       2.982       2.766       2.514       2.267    
        2.054       1.839       1.611       1.412       1.204       1.001      0.7446      0.4785      0.2523       0.000    
  35    10.00       9.953       9.913       9.847       9.719       9.557       9.417       9.252       9.023       8.686    
        8.344       8.057       7.793       7.591       7.445       7.312       7.143       6.941       6.734       6.526    
        6.344       6.135       5.944       5.809       5.692       5.562       5.348       5.108       4.867       4.641    
        4.502       4.339       4.139       3.935       3.687       3.385       3.125       2.947       2.690       2.410    
        2.208       1.992       1.776       1.580       1.346       1.119      0.8602      0.5743      0.2870       0.000    
  36    10.00       9.950       9.894       9.820       9.693       9.540       9.415       9.263       9.034       8.721    
        8.366       8.057       7.858       7.696       7.559       7.395       7.193       6.998       6.779       6.525    
        6.332       6.167       6.002       5.884       5.770       5.613       5.389       5.138       4.892       4.681    
        4.542       4.405       4.215       4.020       3.807       3.532       3.267       3.070       2.843       2.540    
        2.312       2.094       1.872       1.710       1.485       1.233      0.9736      0.6746      0.3431       0.000    
  37    10.00       9.935       9.874       9.793       9.666       9.526       9.386       9.240       9.031       8.696    
        8.338       8.083       7.959       7.805       7.625       7.463       7.236       7.000       6.736       6.484    
        6.331       6.199       6.045       5.924       5.791       5.607       5.397       5.140       4.919       4.755    
        4.606       4.453       4.257       4.084       3.862       3.598       3.388       3.195       2.942       2.640    
        2.367       2.154       1.976       1.795       1.581       1.346       1.097      0.7619      0.4128       0.000    
  38    10.00       9.929       9.849       9.764       9.646       9.510       9.356       9.203       8.983       8.674    
        8.400       8.193       8.034       7.896       7.698       7.452       7.197       6.918       6.637       6.471    
        6.351       6.194       6.050       5.944       5.803       5.599       5.347       5.114       4.979       4.844    
        4.680       4.504       4.314       4.136       3.918       3.673       3.482       3.286       2.985       2.668    
        2.431       2.232       2.052       1.870       1.679       1.452       1.195      0.8720      0.4525       0.000    
  39    10.00       9.910       9.830       9.745       9.630       9.479       9.313       9.153       8.952       8.703    
        8.489       8.335       8.157       7.963       7.681       7.365       7.053       6.757       6.584       6.475    
        6.318       6.151       6.046       5.948       5.817       5.583       5.329       5.167       5.045       4.904    
        4.729       4.560       4.366       4.174       3.987       3.782       3.562       3.333       3.022       2.709    
        2.459       2.260       2.119       1.974       1.767       1.535       1.275      0.9243      0.4527       0.000    
  40    10.00       9.895       9.818       9.732       9.617       9.459       9.289       9.127       8.956       8.749    
        8.573       8.441       8.226       7.919       7.564       7.213       6.897       6.692       6.576       6.448    
        6.276       6.132       6.036       5.922       5.770       5.582       5.407       5.241       5.096       4.964    
        4.802       4.611       4.413       4.231       4.057       3.849       3.611       3.380       3.042       2.700    
        2.473       2.307       2.160       2.035       1.825       1.567       1.329      0.9605      0.4743       0.000    
  41    10.00       9.903       9.812       9.718       9.591       9.448       9.299       9.154       8.991       8.806    
        8.639       8.481       8.194       7.808       7.416       7.098       6.848       6.673       6.554       6.410    
        6.237       6.113       6.009       5.888       5.752       5.614       5.483       5.324       5.150       4.998    
        4.852       4.668       4.467       4.300       4.117       3.913       3.670       3.348       2.972       2.709    
        2.524       2.351       2.215       2.058       1.836       1.581       1.370       1.019      0.5221       0.000    
  42    10.00       9.906       9.806       9.719       9.608       9.475       9.327       9.165       9.019       8.878    
        8.680       8.400       8.042       7.644       7.292       7.046       6.830       6.665       6.527       6.356    
        6.196       6.082       5.977       5.889       5.771       5.668       5.546       5.365       5.180       5.043    
        4.912       4.714       4.497       4.340       4.183       3.954       3.642       3.256       2.922       2.721    
        2.573       2.426       2.258       2.053       1.823       1.617       1.404       1.062      0.5463       0.000    
  43    10.00       9.908       9.815       9.727       9.639       9.520       9.373       9.214       9.056       8.855    
        8.575       8.254       7.888       7.504       7.231       7.024       6.821       6.649       6.484       6.314    
        6.165       6.058       5.979       5.910       5.807       5.694       5.575       5.399       5.233       5.120    
        4.954       4.735       4.531       4.376       4.196       3.916       3.549       3.176       2.944       2.784    
        2.628       2.469       2.264       2.043       1.833       1.633       1.442       1.058      0.4768       0.000    
  44    10.00       9.902       9.818       9.741       9.644       9.554       9.429       9.236       9.025       8.749    
        8.466       8.128       7.728       7.449       7.237       7.010       6.788       6.594       6.415       6.264    
        6.156       6.070       5.995       5.923       5.834       5.720       5.580       5.441       5.311       5.168    
        5.009       4.812       4.581       4.362       4.150       3.864       3.482       3.159       2.972       2.818    
        2.668       2.492       2.287       2.090       1.870       1.649       1.399      0.9064      0.4006       0.000    
  45    10.00       9.902       9.833       9.745       9.654       9.573       9.392       9.173       8.925       8.654    
        8.416       8.011       7.638       7.430       7.214       6.967       6.717       6.519       6.361       6.252    
        6.175       6.098       6.019       5.933       5.837       5.733       5.616       5.497       5.392       5.245    
        5.054       4.843       4.609       4.344       4.104       3.793       3.434       3.179       3.025       2.870    
        2.676       2.473       2.293       2.114       1.922       1.684       1.262      0.7599      0.3849       0.000    
  46    10.00       9.919       9.845       9.752       9.651       9.500       9.310       9.129       8.902       8.637    
        8.294       7.922       7.623       7.362       7.142       6.898       6.649       6.495       6.376       6.275    
        6.203       6.133       6.040       5.936       5.842       5.749       5.653       5.548       5.442       5.308    
        5.130       4.909       4.650       4.350       4.015       3.681       3.419       3.245       3.073       2.896    
        2.672       2.460       2.281       2.137       1.931       1.599       1.131      0.7159      0.3638       0.000    
  47    10.00       9.937       9.868       9.771       9.598       9.415       9.253       9.098       8.895       8.564    
        8.195       7.849       7.561       7.342       7.107       6.836       6.622       6.484       6.390       6.307    
        6.230       6.148       6.057       5.955       5.861       5.781       5.696       5.591       5.469       5.336    
        5.179       4.983       4.649       4.252       3.937       3.690       3.462       3.312       3.155       2.908    
        2.641       2.419       2.251       2.134       1.876       1.479       1.051      0.6891      0.3537       0.000    
  48    10.00       9.945       9.872       9.727       9.552       9.401       9.227       9.071       8.854       8.506    
        8.104       7.790       7.557       7.296       7.022       6.779       6.618       6.483       6.393       6.332    
        6.255       6.157       6.056       5.967       5.892       5.824       5.742       5.627       5.483       5.328    
        5.165       4.942       4.596       4.270       3.994       3.749       3.535       3.366       3.163       2.867    
        2.585       2.406       2.266       2.047       1.701       1.346       1.003      0.6941      0.3734       0.000    
  49    10.00       9.942       9.838       9.708       9.566       9.389       9.214       9.039       8.771       8.402    
        8.056       7.762       7.481       7.234       7.023       6.794       6.586       6.464       6.405       6.345    
        6.274       6.162       6.050       5.977       5.915       5.861       5.770       5.630       5.467       5.319    
        5.149       4.876       4.583       4.365       4.111       3.824       3.565       3.361       3.127       2.811    
        2.583       2.426       2.217       1.888       1.580       1.291      0.9921      0.6941      0.3722       0.000    
  50    10.00       9.934       9.827       9.694       9.564       9.400       9.204       8.986       8.704       8.412    
        8.050       7.682       7.422       7.224       7.046       6.788       6.558       6.467       6.413       6.353    
        6.282       6.167       6.053       5.982       5.929       5.879       5.776       5.616       5.451       5.310    
        5.136       4.854       4.627       4.431       4.167       3.882       3.611       3.331       3.011       2.746    
        2.628       2.450       2.129       1.798       1.569       1.288       1.006      0.6799      0.3031       0.000    

 HEAD WILL BE SAVED ON UNIT   51 AT END OF TIME STEP  64, STRESS PERIOD    2

 DRAWDOWN WILL BE SAVED ON UNIT   52 AT END OF TIME STEP  64, STRESS PERIOD    2
1
  VOLUMETRIC BUDGET FOR ENTIRE MODEL AT END OF TIME STEP 64 IN STRESS PERIOD   2
  ------------------------------------------------------------------------------

     CUMULATIVE VOLUMES      L**3       RATES FOR THIS TIME STEP      L**3/T
     ------------------                 ------------------------

           IN:                                      IN:
           ---                                      ---
             STORAGE =       30808.6133               STORAGE =         436.2249
       CONSTANT HEAD =       39842.7656         CONSTANT HEAD =         650.1807
               WELLS =           0.0000                 WELLS =           0.0000

            TOTAL IN =       70651.3750              TOTAL IN =        1086.4055

          OUT:                                     OUT:
          ----                                     ----
             STORAGE =       9.4320E-03               STORAGE =           0.0000
       CONSTANT HEAD =       38651.3594         CONSTANT HEAD =         586.4055
               WELLS =       32000.0000                 WELLS =         500.0000

           TOTAL OUT =       70651.3672             TOTAL OUT =        1086.4055

            IN - OUT =       7.8125E-03              IN - OUT =           0.0000

 PERCENT DISCREPANCY =           0.00     PERCENT DISCREPANCY =           0.00






          TIME SUMMARY AT END OF TIME STEP  64 IN STRESS PERIOD    2
                    SECONDS     MINUTES      HOURS       DAYS        YEARS
                    -----------------------------------------------------------
   TIME STEP LENGTH  86400.      1440.0      24.000      1.0000     2.73785E-03
 STRESS PERIOD TIME 5.52960E+06  92160.      1536.0      64.000     0.17522    
         TOTAL TIME 5.61600E+06  93600.      1560.0      65.000     0.17796    
1
 
 SOLVING FOR HEAD 

 OUTPUT CONTROL FOR STRESS PERIOD    2   TIME STEP  65
    SAVE HEAD FOR ALL LAYERS
    SAVE DRAWDOWN FOR ALL LAYERS
    SAVE BUDGET
    PRINT HEAD FOR ALL LAYERS
    PRINT BUDGET
 UBDSV1 SAVING "         STORAGE" ON UNIT  53 AT TIME STEP 65, STRESS PERIOD   2
 UBDSV2 SAVING "   CONSTANT HEAD" ON UNIT  53 AT TIME STEP 65, STRESS PERIOD   2
 UBDSV1 SAVING "FLOW RIGHT FACE " ON UNIT  53 AT TIME STEP 65, STRESS PERIOD   2
 UBDSV1 SAVING "FLOW FRONT FACE " ON UNIT  53 AT TIME STEP 65, STRESS PERIOD   2
1
              HEAD IN LAYER   1 AT END OF TIME STEP  65 IN STRESS PERIOD    2
  ---------------------------------------------------------------------------

            1           2           3           4           5           6           7           8           9          10
           11          12          13          14          15          16          17          18          19          20
           21          22          23          24          25          26          27          28          29          30
           31          32          33          34          35          36          37          38          39          40
           41          42          43          44          45          46          47          48          49          50
 ........................................................................................................................
   1    10.00       9.956       9.893       9.821       9.751       9.672       9.597       9.523       9.429       9.338    
        9.267       9.197       9.126       9.057       8.945       8.811       8.661       8.543       8.482       8.412    
        8.328       8.261       8.196       8.121       8.021       7.824       7.603       7.449       7.298       7.157    
        6.973       6.678       6.302       5.883       5.449       4.988       4.531       4.151       3.654       3.114    
        2.670       2.246       1.776       1.383       1.140      0.9351      0.7726      0.6550      0.4397       0.000    
   2    10.00       9.955       9.898       9.825       9.754       9.684       9.610       9.512       9.410       9.335    
        9.273       9.214       9.154       9.069       8.941       8.800       8.659       8.542       8.480       8.401    
        8.317       8.266       8.214       8.135       8.008       7.816       7.615       7.456       7.304       7.166    
        6.961       6.653       6.257       5.780       5.317       4.871       4.475       4.108       3.602       3.079    
        2.635       2.159       1.730       1.422       1.194       1.018      0.8166      0.6375      0.3557       0.000    
   3    10.00       9.949       9.892       9.827       9.765       9.694       9.598       9.495       9.423       9.355    
        9.287       9.232       9.180       9.097       8.966       8.793       8.639       8.545       8.471       8.391    
        8.322       8.270       8.215       8.110       7.971       7.800       7.625       7.500       7.323       7.143    
        6.885       6.518       6.065       5.603       5.193       4.778       4.391       3.996       3.471       2.987    
        2.606       2.168       1.777       1.495       1.270       1.088      0.8494      0.5697      0.2583       0.000    
   4    10.00       9.949       9.893       9.830       9.759       9.677       9.578       9.500       9.437       9.368    
        9.307       9.262       9.203       9.110       8.982       8.797       8.637       8.548       8.466       8.395    
        8.320       8.255       8.185       8.075       7.937       7.784       7.625       7.470       7.313       7.108    
        6.783       6.297       5.814       5.463       5.125       4.697       4.232       3.768       3.349       2.985    
        2.630       2.225       1.858       1.604       1.351       1.120      0.8250      0.5123      0.2454       0.000    
   5    10.00       9.945       9.889       9.818       9.747       9.670       9.581       9.513       9.448       9.384    
        9.331       9.287       9.210       9.100       8.959       8.790       8.655       8.558       8.476       8.379    
        8.290       8.219       8.134       8.026       7.903       7.745       7.586       7.444       7.286       7.035    
        6.565       6.018       5.632       5.358       5.023       4.562       4.082       3.663       3.351       3.023    
        2.676       2.305       1.942       1.707       1.436       1.102      0.7509      0.4567      0.2297       0.000    
   6    10.00       9.937       9.870       9.811       9.746       9.663       9.588       9.529       9.462       9.400    
        9.351       9.297       9.199       9.076       8.952       8.811       8.674       8.561       8.453       8.340    
        8.251       8.167       8.092       7.995       7.838       7.682       7.555       7.409       7.188       6.807    
        6.286       5.789       5.469       5.233       4.930       4.474       3.999       3.648       3.386       3.090    
        2.775       2.450       2.081       1.766       1.407       1.039      0.6630      0.3940      0.2169       0.000    
   7    10.00       9.925       9.860       9.805       9.738       9.668       9.601       9.546       9.483       9.423    
        9.362       9.280       9.173       9.057       8.939       8.828       8.684       8.530       8.406       8.295    
        8.201       8.120       8.056       7.932       7.771       7.640       7.510       7.313       6.954       6.463    
        5.968       5.567       5.351       5.142       4.790       4.362       4.045       3.708       3.423       3.232    
        2.935       2.588       2.155       1.706       1.304      0.9020      0.5709      0.3967      0.2043       0.000    
   8    10.00       9.924       9.866       9.803       9.736       9.674       9.615       9.559       9.501       9.444    
        9.363       9.259       9.153       9.042       8.934       8.808       8.627       8.465       8.363       8.257    
        8.151       8.082       7.986       7.852       7.711       7.574       7.354       7.046       6.590       6.160    
        5.791       5.486       5.289       5.050       4.674       4.322       4.036       3.788       3.571       3.352    
        3.064       2.628       2.096       1.618       1.199      0.8440      0.6041      0.3884      0.1862       0.000    
   9    10.00       9.936       9.865       9.797       9.746       9.695       9.636       9.577       9.513       9.450    
        9.357       9.238       9.123       9.012       8.896       8.747       8.571       8.422       8.312       8.202    
        8.109       8.019       7.888       7.761       7.629       7.458       7.139       6.724       6.298       5.985    
        5.683       5.432       5.217       4.919       4.572       4.279       4.063       3.883       3.689       3.450    
        3.105       2.630       2.089       1.614       1.207      0.8623      0.6093      0.3917      0.2003       0.000    
  10    10.00       9.934       9.858       9.803       9.756       9.706       9.653       9.602       9.527       9.435    
        9.321       9.196       9.086       8.982       8.862       8.679       8.494       8.364       8.262       8.160    
        8.072       7.947       7.802       7.658       7.504       7.254       6.843       6.413       6.052       5.801    
        5.608       5.398       5.137       4.836       4.514       4.271       4.109       3.953       3.744       3.470    
        3.075       2.583       2.090       1.685       1.306      0.9483      0.6282      0.4160      0.2236       0.000    
  11    10.00       9.920       9.858       9.812       9.766       9.724       9.675       9.603       9.501       9.397    
        9.283       9.161       9.058       8.933       8.768       8.593       8.441       8.326       8.233       8.129    
        7.997       7.837       7.640       7.475       7.215       6.865       6.515       6.200       5.899       5.715    
        5.566       5.297       5.013       4.765       4.521       4.336       4.169       3.970       3.712       3.381    
        3.010       2.632       2.160       1.763       1.402       1.048      0.7055      0.4085      0.1713       0.000    
  12    10.00       9.922       9.865       9.817       9.778       9.733       9.677       9.576       9.458       9.358    
        9.252       9.124       8.999       8.849       8.705       8.543       8.396       8.297       8.193       8.049    
        7.828       7.588       7.355       7.123       6.776       6.512       6.316       6.009       5.761       5.624    
        5.456       5.205       4.973       4.744       4.571       4.395       4.185       3.943       3.631       3.300    
        2.987       2.647       2.192       1.803       1.464       1.094      0.7418      0.3851      0.1278       0.000    
  13    10.00       9.937       9.883       9.832       9.785       9.732       9.642       9.526       9.414       9.313    
        9.193       9.068       8.937       8.781       8.622       8.470       8.363       8.239       8.102       7.815    
        7.480       7.226       6.970       6.660       6.395       6.269       6.048       5.778       5.645       5.519    
        5.321       5.107       4.924       4.756       4.608       4.445       4.196       3.871       3.573       3.263    
        2.966       2.615       2.128       1.767       1.476       1.084      0.6811      0.3321      0.1016       0.000    
  14    10.00       9.951       9.905       9.850       9.786       9.698       9.581       9.465       9.364       9.252    
        9.128       9.011       8.863       8.699       8.558       8.426       8.263       8.101       7.827       7.400    
        7.078       6.833       6.492       6.250       6.128       6.015       5.797       5.631       5.501       5.371    
        5.200       5.048       4.920       4.777       4.618       4.459       4.178       3.826       3.520       3.202    
        2.900       2.464       2.002       1.718       1.389       1.036      0.6808      0.3070      8.7436E-02   0.000    
  15    10.00       9.961       9.913       9.852       9.774       9.647       9.505       9.402       9.308       9.196    
        9.100       8.979       8.789       8.601       8.471       8.265       8.057       7.887       7.467       7.001    
        6.712       6.384       6.097       6.008       5.944       5.801       5.616       5.462       5.362       5.262    
        5.133       5.024       4.919       4.794       4.640       4.446       4.119       3.732       3.411       3.124    
        2.801       2.363       2.001       1.648       1.257      0.9473      0.6076      0.2810      9.5088E-02   0.000    
  16    10.00       9.968       9.916       9.840       9.727       9.575       9.448       9.366       9.282       9.170    
        9.054       8.875       8.637       8.456       8.268       8.030       7.891       7.546       6.956       6.550    
        6.297       6.018       5.916       5.865       5.747       5.562       5.419       5.343       5.296       5.211    
        5.103       5.004       4.916       4.790       4.604       4.343       3.971       3.640       3.390       3.090    
        2.717       2.288       1.900       1.516       1.181      0.8380      0.5444      0.2835      0.1012       0.000    
  17    10.00       9.963       9.901       9.800       9.670       9.513       9.401       9.329       9.229       9.111    
        8.902       8.651       8.451       8.266       8.024       7.786       7.494       6.944       6.455       6.203    
        6.005       5.858       5.788       5.666       5.483       5.353       5.312       5.289       5.243       5.157    
        5.064       4.978       4.885       4.758       4.490       4.150       3.866       3.653       3.414       3.053    
        2.583       2.165       1.805       1.446       1.058      0.6984      0.4636      0.2571      0.1071       0.000    
  18    10.00       9.947       9.867       9.750       9.580       9.447       9.368       9.262       9.140       8.961    
        8.695       8.486       8.299       8.017       7.700       7.373       6.964       6.487       6.190       5.997    
        5.848       5.721       5.607       5.443       5.317       5.278       5.261       5.237       5.178       5.096    
        5.018       4.932       4.814       4.617       4.344       4.073       3.853       3.681       3.380       2.938    
        2.486       2.051       1.689       1.353      0.9808      0.6437      0.3917      0.2147      0.1003       0.000    
  19    10.00       9.930       9.837       9.666       9.497       9.419       9.319       9.180       9.032       8.828    
        8.592       8.386       8.086       7.683       7.354       7.033       6.595       6.209       6.022       5.897    
        5.739       5.579       5.450       5.312       5.245       5.227       5.204       5.160       5.089       5.019    
        4.943       4.849       4.696       4.497       4.278       4.051       3.866       3.645       3.219       2.784    
        2.427       1.984       1.593       1.266      0.9004      0.5797      0.3523      0.2037      0.1020       0.000    
  20    10.00       9.909       9.767       9.590       9.465       9.376       9.264       9.116       8.939       8.750    
        8.503       8.195       7.788       7.420       7.128       6.746       6.350       6.153       5.995       5.825    
        5.654       5.486       5.327       5.227       5.181       5.144       5.093       5.047       4.979       4.916    
        4.844       4.750       4.599       4.428       4.234       4.044       3.849       3.506       3.061       2.693    
        2.299       1.869       1.523       1.196      0.8558      0.5208      0.3060      0.2055      0.1038       0.000    
  21    10.00       9.856       9.710       9.565       9.434       9.334       9.211       9.022       8.842       8.658    
        8.338       7.949       7.568       7.266       6.953       6.587       6.305       6.133       5.952       5.766    
        5.558       5.367       5.228       5.124       5.048       4.980       4.938       4.897       4.826       4.779    
        4.729       4.633       4.506       4.362       4.192       4.012       3.737       3.392       3.009       2.574    
        2.178       1.774       1.475       1.175      0.7439      0.4400      0.3135      0.2288      0.1100       0.000    
  22    10.00       9.835       9.663       9.521       9.410       9.290       9.110       8.921       8.761       8.517    
        8.179       7.773       7.445       7.194       6.851       6.514       6.276       6.100       5.920       5.696    
        5.456       5.262       5.082       4.922       4.819       4.770       4.737       4.683       4.659       4.632    
        4.595       4.522       4.429       4.298       4.143       3.969       3.684       3.343       2.892       2.464    
        2.123       1.757       1.425      0.9803      0.6128      0.4411      0.3317      0.2207      8.7649E-02   0.000    
  23    10.00       9.797       9.629       9.512       9.390       9.211       9.008       8.859       8.657       8.404    
        8.059       7.699       7.445       7.128       6.759       6.466       6.265       6.103       5.900       5.631    
        5.375       5.147       4.908       4.623       4.371       4.322       4.396       4.431       4.479       4.495    
        4.480       4.433       4.354       4.249       4.102       3.921       3.657       3.234       2.761       2.408    
        2.082       1.666       1.188      0.8017      0.5979      0.4527      0.3313      0.2102      9.7903E-02   0.000    
  24    10.00       9.769       9.647       9.512       9.339       9.142       8.982       8.821       8.622       8.330    
        8.014       7.734       7.454       7.073       6.683       6.451       6.285       6.117       5.871       5.600    
        5.347       5.084       4.718       4.064       3.079       3.410       3.861       4.146       4.298       4.360    
        4.377       4.349       4.295       4.189       4.047       3.864       3.537       3.091       2.690       2.317    
        1.919       1.478       1.055      0.7654      0.5953      0.4503      0.3238      0.2454      0.1351       0.000    
  25    10.00       9.798       9.670       9.506       9.325       9.149       8.985       8.832       8.589       8.298    
        8.033       7.763       7.422       7.004       6.702       6.490       6.304       6.106       5.878       5.626    
        5.352       5.091       4.423       3.030     -0.1300       2.434       3.404       3.890       4.148       4.265    
        4.299       4.287       4.233       4.110       3.960       3.737       3.398       2.970       2.608       2.204    
        1.745       1.329      0.9832      0.7580      0.6195      0.4844      0.3540      0.2609      0.1703       0.000    
  26    10.00       9.827       9.706       9.530       9.344       9.189       9.020       8.826       8.578       8.352    
        8.123       7.765       7.336       6.979       6.759       6.568       6.348       6.090       5.848       5.633    
        5.422       5.134       4.518       3.507       2.444       2.964       3.526       3.880       4.098       4.223    
        4.254       4.240       4.168       4.048       3.903       3.662       3.218       2.822       2.516       2.021    
        1.522       1.178      0.9740      0.8226      0.6753      0.5254      0.3896      0.2854      0.1705       0.000    
  27    10.00       9.865       9.718       9.568       9.402       9.223       9.055       8.868       8.647       8.431    
        8.126       7.704       7.332       7.043       6.848       6.634       6.345       6.062       5.865       5.693    
        5.517       5.220       4.758       4.200       3.606       3.625       3.823       4.008       4.148       4.222    
        4.236       4.212       4.141       4.018       3.822       3.443       3.023       2.710       2.237       1.748    
        1.389       1.164       1.015      0.8869      0.7512      0.5784      0.4166      0.3118      0.2096       0.000    
  28    10.00       9.878       9.753       9.610       9.459       9.291       9.117       8.929       8.721       8.473    
        8.100       7.718       7.395       7.117       6.916       6.699       6.452       6.175       5.912       5.742    
        5.584       5.371       5.063       4.645       4.269       4.101       4.112       4.196       4.231       4.254    
        4.240       4.201       4.115       3.939       3.646       3.248       2.887       2.457       1.987       1.661    
        1.398       1.212       1.064      0.9372      0.7976      0.6323      0.4721      0.3547      0.2163       0.000    
  29    10.00       9.883       9.765       9.658       9.513       9.360       9.193       9.005       8.785       8.453    
        8.087       7.754       7.449       7.219       6.988       6.754       6.528       6.306       6.052       5.830    
        5.660       5.481       5.269       5.012       4.670       4.487       4.416       4.385       4.365       4.320    
        4.261       4.177       4.065       3.825       3.470       3.106       2.725       2.288       1.927       1.689    
        1.473       1.268       1.107      0.9829      0.8468      0.6773      0.5122      0.3751      0.2187       0.000    
  30    10.00       9.894       9.796       9.702       9.576       9.435       9.287       9.079       8.805       8.469    
        8.092       7.754       7.499       7.273       7.046       6.819       6.630       6.439       6.210       5.973    
        5.769       5.604       5.420       5.235       5.015       4.816       4.733       4.604       4.524       4.410    
        4.278       4.135       3.966       3.708       3.411       3.062       2.665       2.260       1.993       1.773    
        1.528       1.326       1.171       1.023      0.8696      0.7194      0.5462      0.3911      0.2364       0.000    
  31    10.00       9.912       9.827       9.740       9.649       9.538       9.377       9.133       8.818       8.469    
        8.107       7.792       7.550       7.319       7.117       6.908       6.710       6.564       6.343       6.115    
        5.920       5.748       5.585       5.415       5.273       5.114       4.958       4.809       4.650       4.484    
        4.285       4.086       3.907       3.694       3.395       3.027       2.647       2.310       2.092       1.894    
        1.640       1.406       1.225       1.068      0.9153      0.7560      0.5820      0.4182      0.2302       0.000    
  32    10.00       9.926       9.862       9.785       9.697       9.597       9.439       9.164       8.869       8.552    
        8.170       7.844       7.604       7.387       7.184       7.008       6.832       6.648       6.470       6.253    
        6.047       5.860       5.700       5.541       5.411       5.300       5.126       4.948       4.738       4.512    
        4.296       4.095       3.897       3.688       3.402       3.068       2.747       2.450       2.217       1.994    
        1.757       1.513       1.319       1.134      0.9593      0.8148      0.6364      0.4194      0.2084       0.000    
  33    10.00       9.936       9.884       9.822       9.737       9.624       9.424       9.159       8.913       8.621    
        8.251       7.929       7.681       7.446       7.258       7.106       6.951       6.768       6.570       6.371    
        6.156       5.956       5.769       5.614       5.509       5.397       5.225       5.006       4.788       4.570    
        4.355       4.166       3.962       3.695       3.422       3.118       2.842       2.602       2.359       2.116    
        1.895       1.662       1.448       1.254       1.059      0.8870      0.6862      0.4298      0.2025       0.000    
  34    10.00       9.943       9.908       9.854       9.750       9.596       9.403       9.208       8.956       8.640    
        8.317       8.004       7.740       7.506       7.336       7.217       7.052       6.869       6.653       6.465    
        6.269       6.034       5.847       5.703       5.596       5.464       5.265       5.068       4.841       4.604    
        4.422       4.250       4.065       3.799       3.515       3.234       2.979       2.763       2.512       2.265    
        2.052       1.838       1.610       1.411       1.203       1.001      0.7441      0.4783      0.2522       0.000    
  35    10.00       9.953       9.913       9.846       9.718       9.556       9.416       9.250       9.020       8.682    
        8.339       8.051       7.787       7.584       7.438       7.303       7.134       6.932       6.725       6.517    
        6.334       6.126       5.935       5.799       5.683       5.552       5.339       5.100       4.860       4.634    
        4.496       4.334       4.134       3.930       3.684       3.382       3.122       2.945       2.688       2.408    
        2.207       1.991       1.774       1.579       1.346       1.119      0.8598      0.5740      0.2868       0.000    
  36    10.00       9.950       9.894       9.819       9.692       9.539       9.413       9.260       9.031       8.717    
        8.362       8.052       7.852       7.689       7.552       7.387       7.185       6.990       6.771       6.516    
        6.323       6.158       5.994       5.876       5.761       5.605       5.381       5.131       4.886       4.676    
        4.538       4.400       4.211       4.016       3.804       3.529       3.265       3.067       2.841       2.538    
        2.310       2.093       1.871       1.710       1.484       1.232      0.9732      0.6743      0.3430       0.000    
  37    10.00       9.935       9.874       9.793       9.665       9.525       9.385       9.238       9.028       8.692    
        8.334       8.078       7.953       7.798       7.619       7.456       7.228       6.992       6.729       6.476    
        6.323       6.192       6.038       5.916       5.784       5.600       5.391       5.134       4.914       4.751    
        4.602       4.449       4.254       4.081       3.859       3.595       3.385       3.193       2.940       2.639    
        2.366       2.153       1.976       1.794       1.580       1.346       1.097      0.7616      0.4127       0.000    
  38    10.00       9.929       9.849       9.763       9.646       9.509       9.355       9.201       8.980       8.670    
        8.396       8.189       8.029       7.890       7.692       7.445       7.191       6.912       6.631       6.465    
        6.344       6.187       6.044       5.937       5.797       5.594       5.343       5.110       4.976       4.840    
        4.676       4.501       4.311       4.134       3.915       3.670       3.480       3.284       2.983       2.667    
        2.430       2.231       2.051       1.869       1.678       1.452       1.195      0.8718      0.4524       0.000    
  39    10.00       9.910       9.830       9.744       9.629       9.478       9.312       9.151       8.950       8.700    
        8.485       8.331       8.153       7.958       7.675       7.360       7.048       6.752       6.579       6.470    
        6.312       6.146       6.041       5.943       5.812       5.579       5.325       5.163       5.042       4.901    
        4.726       4.557       4.363       4.172       3.985       3.780       3.560       3.331       3.021       2.708    
        2.458       2.259       2.119       1.973       1.766       1.534       1.275      0.9240      0.4526       0.000    
  40    10.00       9.895       9.817       9.732       9.616       9.458       9.288       9.125       8.954       8.747    
        8.570       8.438       8.222       7.915       7.560       7.209       6.893       6.688       6.571       6.444    
        6.272       6.127       6.032       5.918       5.766       5.579       5.403       5.238       5.092       4.961    
        4.800       4.609       4.411       4.229       4.055       3.847       3.610       3.379       3.040       2.698    
        2.472       2.306       2.159       2.034       1.825       1.567       1.328      0.9602      0.4741       0.000    
  41    10.00       9.903       9.812       9.718       9.590       9.447       9.298       9.152       8.989       8.804    
        8.637       8.478       8.191       7.804       7.413       7.095       6.844       6.669       6.550       6.406    
        6.233       6.109       6.006       5.884       5.749       5.611       5.480       5.321       5.147       4.995    
        4.849       4.666       4.465       4.298       4.115       3.911       3.669       3.346       2.971       2.708    
        2.523       2.350       2.214       2.057       1.836       1.580       1.369       1.019      0.5220       0.000    
  42    10.00       9.906       9.805       9.718       9.607       9.474       9.325       9.164       9.018       8.876    
        8.678       8.397       8.039       7.641       7.289       7.043       6.827       6.661       6.524       6.352    
        6.193       6.079       5.974       5.886       5.769       5.666       5.543       5.363       5.178       5.041    
        4.910       4.712       4.495       4.338       4.181       3.952       3.641       3.255       2.921       2.720    
        2.573       2.425       2.257       2.053       1.823       1.617       1.404       1.061      0.5461       0.000    
  43    10.00       9.908       9.815       9.726       9.638       9.520       9.372       9.213       9.054       8.854    
        8.573       8.251       7.885       7.502       7.228       7.022       6.818       6.646       6.481       6.311    
        6.162       6.055       5.976       5.907       5.804       5.691       5.573       5.397       5.230       5.117    
        4.951       4.733       4.529       4.374       4.194       3.914       3.548       3.175       2.943       2.783    
        2.627       2.468       2.263       2.042       1.832       1.633       1.442       1.058      0.4767       0.000    
  44    10.00       9.902       9.817       9.741       9.644       9.554       9.428       9.235       9.024       8.748    
        8.465       8.126       7.726       7.447       7.234       7.007       6.785       6.591       6.412       6.261    
        6.154       6.067       5.992       5.921       5.831       5.717       5.578       5.438       5.309       5.166    
        5.007       4.809       4.579       4.360       4.148       3.863       3.481       3.158       2.971       2.817    
        2.667       2.491       2.286       2.089       1.869       1.648       1.399      0.9061      0.4005       0.000    
  45    10.00       9.902       9.832       9.744       9.653       9.572       9.391       9.172       8.924       8.653    
        8.414       8.009       7.637       7.428       7.212       6.965       6.715       6.517       6.359       6.249    
        6.172       6.096       6.017       5.930       5.835       5.731       5.614       5.495       5.389       5.243    
        5.052       4.841       4.607       4.342       4.102       3.792       3.432       3.178       3.024       2.870    
        2.675       2.472       2.292       2.114       1.922       1.684       1.261      0.7597      0.3848       0.000    
  46    10.00       9.919       9.845       9.752       9.651       9.500       9.309       9.128       8.901       8.635    
        8.293       7.920       7.621       7.361       7.140       6.896       6.647       6.492       6.374       6.273    
        6.201       6.130       6.037       5.934       5.840       5.747       5.651       5.546       5.440       5.305    
        5.128       4.907       4.648       4.349       4.014       3.680       3.417       3.244       3.072       2.895    
        2.671       2.459       2.280       2.136       1.930       1.599       1.131      0.7158      0.3637       0.000    
  47    10.00       9.937       9.868       9.771       9.598       9.415       9.252       9.097       8.894       8.563    
        8.193       7.847       7.560       7.341       7.105       6.834       6.620       6.482       6.388       6.304    
        6.228       6.146       6.054       5.953       5.859       5.778       5.693       5.589       5.467       5.334    
        5.177       4.981       4.647       4.251       3.936       3.689       3.460       3.311       3.154       2.907    
        2.640       2.418       2.250       2.134       1.875       1.479       1.051      0.6889      0.3536       0.000    
  48    10.00       9.945       9.872       9.726       9.552       9.400       9.226       9.070       8.853       8.505    
        8.102       7.788       7.555       7.294       7.020       6.777       6.616       6.481       6.391       6.329    
        6.253       6.154       6.053       5.965       5.890       5.821       5.740       5.625       5.480       5.326    
        5.163       4.940       4.594       4.269       3.993       3.748       3.534       3.365       3.162       2.866    
        2.584       2.405       2.265       2.046       1.701       1.346       1.003      0.6939      0.3733       0.000    
  49    10.00       9.942       9.838       9.708       9.565       9.389       9.214       9.038       8.770       8.401    
        8.054       7.761       7.479       7.232       7.021       6.792       6.584       6.462       6.403       6.343    
        6.271       6.160       6.048       5.975       5.913       5.859       5.768       5.628       5.465       5.317    
        5.147       4.874       4.581       4.363       4.110       3.823       3.564       3.360       3.126       2.810    
        2.582       2.425       2.217       1.887       1.580       1.290      0.9919      0.6939      0.3722       0.000    
  50    10.00       9.934       9.826       9.693       9.564       9.399       9.204       8.985       8.703       8.411    
        8.048       7.681       7.420       7.222       7.044       6.786       6.556       6.464       6.411       6.351    
        6.280       6.165       6.051       5.979       5.927       5.877       5.774       5.614       5.449       5.308    
        5.134       4.852       4.626       4.430       4.165       3.880       3.610       3.330       3.010       2.745    
        2.628       2.450       2.128       1.797       1.569       1.288       1.006      0.6797      0.3031       0.000    

 HEAD WILL BE SAVED ON UNIT   51 AT END OF TIME STEP  65, STRESS PERIOD    2

 DRAWDOWN WILL BE SAVED ON UNIT   52 AT END OF TIME STEP  65, STRESS PERIOD    2
1
  VOLUMETRIC BUDGET FOR ENTIRE MODEL AT END OF TIME STEP 65 IN STRESS PERIOD   2
  ------------------------------------------------------------------------------

     CUMULATIVE VOLUMES      L**3       RATES FOR THIS TIME STEP      L**3/T
     ------------------                 ------------------------

           IN:                                      IN:
           ---                                      ---
             STORAGE =       31242.7617               STORAGE =         434.1490
       CONSTANT HEAD =       40494.5273         CONSTANT HEAD =         651.7631
               WELLS =           0.0000                 WELLS =           0.0000

            TOTAL IN =       71737.2891              TOTAL IN =        1085.9121

          OUT:                                     OUT:
          ----                                     ----
             STORAGE =       9.4320E-03               STORAGE =           0.0000
       CONSTANT HEAD =       39237.2734         CONSTANT HEAD =         585.9121
               WELLS =       32500.0000                 WELLS =         500.0000

           TOTAL OUT =       71737.2812             TOTAL OUT =        1085.9121

            IN - OUT =       7.8125E-03              IN - OUT =           0.0000

 PERCENT DISCREPANCY =           0.00     PERCENT DISCREPANCY =           0.00






          TIME SUMMARY AT END OF TIME STEP  65 IN STRESS PERIOD    2
                    SECONDS     MINUTES      HOURS       DAYS        YEARS
                    -----------------------------------------------------------
   TIME STEP LENGTH  86400.      1440.0      24.000      1.0000     2.73785E-03
 STRESS PERIOD TIME 5.61600E+06  93600.      1560.0      65.000     0.17796    
         TOTAL TIME 5.70240E+06  95040.      1584.0      66.000     0.18070    
1
 
 SOLVING FOR HEAD 

 OUTPUT CONTROL FOR STRESS PERIOD    2   TIME STEP  66
    SAVE HEAD FOR ALL LAYERS
    SAVE DRAWDOWN FOR ALL LAYERS
    SAVE BUDGET
    PRINT HEAD FOR ALL LAYERS
    PRINT BUDGET
 UBDSV1 SAVING "         STORAGE" ON UNIT  53 AT TIME STEP 66, STRESS PERIOD   2
 UBDSV2 SAVING "   CONSTANT HEAD" ON UNIT  53 AT TIME STEP 66, STRESS PERIOD   2
 UBDSV1 SAVING "FLOW RIGHT FACE " ON UNIT  53 AT TIME STEP 66, STRESS PERIOD   2
 UBDSV1 SAVING "FLOW FRONT FACE " ON UNIT  53 AT TIME STEP 66, STRESS PERIOD   2
1
              HEAD IN LAYER   1 AT END OF TIME STEP  66 IN STRESS PERIOD    2
  ---------------------------------------------------------------------------

            1           2           3           4           5           6           7           8           9          10
           11          12          13          14          15          16          17          18          19          20
           21          22          23          24          25          26          27          28          29          30
           31          32          33          34          35          36          37          38          39          40
           41          42          43          44          45          46          47          48          49          50
 ........................................................................................................................
   1    10.00       9.956       9.893       9.820       9.751       9.671       9.596       9.521       9.428       9.336    
        9.265       9.195       9.124       9.055       8.943       8.808       8.658       8.540       8.479       8.408    
        8.324       8.257       8.192       8.117       8.017       7.820       7.599       7.445       7.294       7.153    
        6.969       6.674       6.298       5.880       5.446       4.984       4.528       4.148       3.652       3.111    
        2.668       2.245       1.775       1.381       1.139      0.9343      0.7720      0.6544      0.4393       0.000    
   2    10.00       9.955       9.897       9.825       9.754       9.684       9.609       9.511       9.408       9.333    
        9.272       9.212       9.152       9.067       8.939       8.797       8.656       8.539       8.477       8.398    
        8.313       8.263       8.210       8.132       8.004       7.812       7.611       7.452       7.300       7.162    
        6.957       6.649       6.253       5.777       5.314       4.868       4.472       4.105       3.599       3.077    
        2.633       2.157       1.729       1.421       1.193       1.017      0.8159      0.6370      0.3554       0.000    
   3    10.00       9.949       9.891       9.827       9.765       9.693       9.597       9.494       9.421       9.354    
        9.285       9.231       9.178       9.095       8.964       8.790       8.636       8.541       8.468       8.387    
        8.319       8.266       8.211       8.106       7.967       7.796       7.621       7.496       7.319       7.139    
        6.881       6.514       6.061       5.599       5.189       4.775       4.388       3.993       3.468       2.984    
        2.604       2.166       1.776       1.494       1.269       1.087      0.8487      0.5692      0.2581       0.000    
   4    10.00       9.948       9.892       9.830       9.759       9.676       9.577       9.498       9.436       9.366    
        9.306       9.260       9.202       9.108       8.980       8.795       8.634       8.545       8.463       8.391    
        8.317       8.251       8.181       8.071       7.933       7.779       7.621       7.466       7.308       7.104    
        6.779       6.292       5.810       5.459       5.121       4.693       4.228       3.765       3.346       2.983    
        2.628       2.223       1.857       1.603       1.350       1.119      0.8243      0.5118      0.2452       0.000    
   5    10.00       9.945       9.888       9.817       9.746       9.669       9.580       9.512       9.447       9.382    
        9.330       9.285       9.208       9.098       8.957       8.788       8.651       8.554       8.473       8.375    
        8.286       8.215       8.130       8.022       7.899       7.740       7.582       7.439       7.281       7.030    
        6.561       6.013       5.627       5.354       5.019       4.558       4.079       3.659       3.348       3.020    
        2.673       2.303       1.941       1.706       1.434       1.101      0.7502      0.4563      0.2295       0.000    
   6    10.00       9.937       9.870       9.811       9.746       9.662       9.587       9.528       9.460       9.399    
        9.349       9.295       9.197       9.073       8.950       8.808       8.670       8.558       8.449       8.336    
        8.247       8.163       8.088       7.991       7.834       7.677       7.550       7.405       7.184       6.802    
        6.281       5.784       5.463       5.228       4.925       4.469       3.995       3.645       3.382       3.087    
        2.772       2.448       2.079       1.764       1.405       1.038      0.6624      0.3936      0.2167       0.000    
   7    10.00       9.925       9.859       9.805       9.737       9.667       9.600       9.545       9.482       9.421    
        9.360       9.278       9.171       9.054       8.937       8.826       8.681       8.527       8.402       8.291    
        8.196       8.115       8.051       7.928       7.767       7.635       7.505       7.308       6.948       6.458    
        5.962       5.561       5.346       5.137       4.785       4.357       4.040       3.703       3.419       3.229    
        2.932       2.585       2.152       1.704       1.303      0.9011      0.5703      0.3963      0.2041       0.000    
   8    10.00       9.924       9.865       9.803       9.735       9.673       9.614       9.558       9.500       9.442    
        9.361       9.257       9.151       9.040       8.931       8.805       8.624       8.462       8.359       8.253    
        8.147       8.077       7.981       7.847       7.706       7.569       7.349       7.040       6.584       6.154    
        5.785       5.479       5.283       5.044       4.668       4.317       4.031       3.784       3.567       3.349    
        3.061       2.626       2.094       1.616       1.198      0.8432      0.6035      0.3881      0.1861       0.000    
   9    10.00       9.936       9.864       9.796       9.746       9.694       9.635       9.576       9.511       9.449    
        9.355       9.236       9.120       9.009       8.893       8.744       8.568       8.418       8.307       8.198    
        8.104       8.014       7.883       7.755       7.624       7.453       7.133       6.718       6.291       5.978    
        5.676       5.426       5.211       4.913       4.566       4.274       4.058       3.878       3.684       3.446    
        3.101       2.627       2.086       1.612       1.206      0.8614      0.6087      0.3914      0.2001       0.000    
  10    10.00       9.933       9.858       9.802       9.755       9.705       9.652       9.601       9.526       9.433    
        9.320       9.194       9.083       8.979       8.859       8.675       8.490       8.360       8.258       8.155    
        8.067       7.942       7.797       7.652       7.498       7.248       6.836       6.406       6.045       5.794    
        5.600       5.391       5.130       4.829       4.508       4.265       4.103       3.947       3.739       3.465    
        3.071       2.580       2.087       1.683       1.304      0.9473      0.6275      0.4156      0.2234       0.000    
  11    10.00       9.919       9.858       9.812       9.766       9.723       9.674       9.602       9.500       9.395    
        9.281       9.158       9.056       8.930       8.765       8.589       8.437       8.322       8.228       8.124    
        7.992       7.831       7.634       7.469       7.209       6.857       6.507       6.192       5.891       5.707    
        5.558       5.289       5.006       4.758       4.514       4.330       4.163       3.964       3.707       3.377    
        3.006       2.629       2.157       1.761       1.401       1.047      0.7047      0.4081      0.1712       0.000    
  12    10.00       9.922       9.865       9.816       9.777       9.732       9.676       9.575       9.456       9.356    
        9.250       9.121       8.996       8.845       8.701       8.539       8.391       8.292       8.188       8.044    
        7.822       7.582       7.349       7.116       6.768       6.504       6.307       6.000       5.752       5.615    
        5.447       5.197       4.965       4.736       4.564       4.388       4.179       3.937       3.626       3.296    
        2.983       2.643       2.189       1.800       1.463       1.093      0.7409      0.3847      0.1277       0.000    
  13    10.00       9.937       9.883       9.831       9.784       9.732       9.641       9.525       9.413       9.311    
        9.190       9.065       8.934       8.777       8.618       8.466       8.358       8.234       8.096       7.809    
        7.473       7.219       6.962       6.651       6.386       6.260       6.039       5.769       5.635       5.510    
        5.312       5.098       4.916       4.748       4.601       4.438       4.190       3.865       3.568       3.259    
        2.962       2.611       2.125       1.764       1.474       1.083      0.6803      0.3317      0.1015       0.000    
  14    10.00       9.951       9.905       9.850       9.785       9.697       9.580       9.463       9.362       9.249    
        9.125       9.008       8.860       8.695       8.553       8.421       8.257       8.095       7.820       7.392    
        7.070       6.824       6.482       6.240       6.118       6.004       5.786       5.620       5.491       5.361    
        5.190       5.039       4.911       4.768       4.610       4.451       4.171       3.820       3.514       3.197    
        2.895       2.460       1.999       1.716       1.387       1.035      0.6800      0.3066      8.7325E-02   0.000    
  15    10.00       9.961       9.913       9.851       9.774       9.646       9.503       9.400       9.305       9.194    
        9.097       8.975       8.785       8.597       8.466       8.259       8.051       7.880       7.459       6.992    
        6.702       6.374       6.086       5.997       5.933       5.790       5.605       5.451       5.351       5.251    
        5.123       5.014       4.910       4.785       4.631       4.438       4.112       3.725       3.405       3.118    
        2.796       2.359       1.998       1.646       1.256      0.9460      0.6068      0.2807      9.4959E-02   0.000    
  16    10.00       9.968       9.916       9.840       9.726       9.573       9.446       9.364       9.280       9.167    
        9.050       8.871       8.633       8.451       8.262       8.024       7.884       7.538       6.947       6.539    
        6.286       6.006       5.905       5.854       5.736       5.551       5.407       5.331       5.285       5.200    
        5.093       4.994       4.906       4.781       4.595       4.334       3.964       3.633       3.384       3.084    
        2.712       2.284       1.897       1.514       1.179      0.8368      0.5436      0.2831      0.1011       0.000    
  17    10.00       9.963       9.900       9.799       9.669       9.511       9.399       9.327       9.226       9.107    
        8.897       8.646       8.446       8.260       8.017       7.779       7.485       6.934       6.444       6.191    
        5.993       5.847       5.776       5.655       5.471       5.341       5.300       5.277       5.231       5.146    
        5.053       4.967       4.875       4.748       4.481       4.142       3.858       3.646       3.407       3.047    
        2.578       2.161       1.802       1.444       1.056      0.6974      0.4629      0.2567      0.1070       0.000    
  18    10.00       9.947       9.867       9.749       9.578       9.445       9.366       9.259       9.136       8.957    
        8.690       8.480       8.293       8.010       7.692       7.364       6.954       6.476       6.178       5.985    
        5.836       5.709       5.595       5.430       5.305       5.265       5.248       5.225       5.166       5.084    
        5.007       4.921       4.804       4.607       4.334       4.064       3.845       3.673       3.373       2.932    
        2.482       2.047       1.686       1.351      0.9792      0.6427      0.3911      0.2144      0.1001       0.000    
  19    10.00       9.929       9.836       9.665       9.495       9.417       9.316       9.177       9.028       8.823    
        8.587       8.379       8.078       7.675       7.344       7.023       6.584       6.197       6.009       5.885    
        5.727       5.566       5.437       5.300       5.233       5.214       5.192       5.147       5.076       5.007    
        4.931       4.837       4.685       4.487       4.268       4.042       3.857       3.638       3.212       2.778    
        2.423       1.980       1.590       1.264      0.8989      0.5788      0.3517      0.2034      0.1019       0.000    
  20    10.00       9.908       9.766       9.588       9.463       9.373       9.261       9.112       8.935       8.745    
        8.497       8.188       7.780       7.410       7.118       6.735       6.338       6.141       5.983       5.812    
        5.642       5.473       5.315       5.214       5.169       5.132       5.080       5.035       4.966       4.904    
        4.832       4.738       4.587       4.417       4.224       4.035       3.840       3.498       3.054       2.688    
        2.295       1.865       1.520       1.193      0.8543      0.5200      0.3055      0.2052      0.1037       0.000    
  21    10.00       9.855       9.709       9.563       9.432       9.331       9.208       9.018       8.837       8.653    
        8.331       7.941       7.559       7.256       6.942       6.576       6.293       6.121       5.940       5.754    
        5.545       5.354       5.215       5.112       5.035       4.967       4.925       4.884       4.813       4.766    
        4.717       4.620       4.495       4.351       4.182       4.002       3.728       3.384       3.002       2.568    
        2.174       1.771       1.472       1.173      0.7426      0.4393      0.3130      0.2284      0.1098       0.000    
  22    10.00       9.834       9.661       9.519       9.407       9.287       9.106       8.916       8.755       8.511    
        8.172       7.765       7.435       7.183       6.840       6.503       6.264       6.087       5.907       5.683    
        5.443       5.249       5.069       4.909       4.806       4.757       4.724       4.669       4.646       4.619    
        4.582       4.509       4.417       4.286       4.132       3.958       3.675       3.335       2.886       2.459    
        2.118       1.754       1.422      0.9786      0.6118      0.4404      0.3312      0.2203      8.7519E-02   0.000    
  23    10.00       9.796       9.627       9.509       9.387       9.207       9.003       8.855       8.651       8.397    
        8.052       7.690       7.436       7.117       6.748       6.454       6.253       6.090       5.887       5.618    
        5.362       5.134       4.895       4.610       4.358       4.309       4.382       4.418       4.466       4.482    
        4.467       4.420       4.341       4.237       4.090       3.910       3.648       3.226       2.754       2.403    
        2.077       1.662       1.186      0.8004      0.5970      0.4520      0.3308      0.2099      9.7763E-02   0.000    
  24    10.00       9.768       9.645       9.509       9.336       9.139       8.978       8.816       8.616       8.323    
        8.006       7.725       7.445       7.062       6.672       6.439       6.273       6.104       5.859       5.587    
        5.334       5.071       4.705       4.050       3.065       3.396       3.847       4.132       4.284       4.346    
        4.364       4.335       4.283       4.177       4.035       3.853       3.528       3.083       2.684       2.312    
        1.915       1.475       1.053      0.7643      0.5944      0.4496      0.3233      0.2450      0.1349       0.000    
  25    10.00       9.797       9.668       9.504       9.322       9.145       8.980       8.827       8.583       8.291    
        8.025       7.755       7.413       6.993       6.690       6.478       6.292       6.094       5.865       5.614    
        5.339       5.077       4.410       3.016     -0.1453       2.419       3.389       3.876       4.134       4.251    
        4.285       4.274       4.220       4.098       3.948       3.727       3.389       2.962       2.602       2.199    
        1.741       1.327      0.9817      0.7570      0.6186      0.4837      0.3535      0.2606      0.1701       0.000    
  26    10.00       9.827       9.705       9.528       9.341       9.186       9.015       8.821       8.572       8.345    
        8.116       7.757       7.326       6.969       6.748       6.557       6.336       6.078       5.836       5.620    
        5.409       5.121       4.505       3.493       2.430       2.950       3.511       3.865       4.084       4.209    
        4.240       4.227       4.155       4.036       3.892       3.651       3.210       2.815       2.510       2.017    
        1.519       1.176      0.9726      0.8215      0.6743      0.5247      0.3891      0.2851      0.1702       0.000    
  27    10.00       9.865       9.717       9.566       9.399       9.220       9.051       8.864       8.641       8.425    
        8.118       7.696       7.323       7.032       6.837       6.623       6.333       6.050       5.853       5.681    
        5.504       5.207       4.745       4.186       3.592       3.611       3.809       3.994       4.134       4.209    
        4.222       4.199       4.129       4.006       3.811       3.434       3.015       2.704       2.232       1.745    
        1.387       1.162       1.014      0.8857      0.7502      0.5776      0.4160      0.3114      0.2093       0.000    
  28    10.00       9.877       9.752       9.608       9.457       9.288       9.113       8.925       8.716       8.466    
        8.092       7.709       7.386       7.107       6.905       6.688       6.441       6.163       5.900       5.729    
        5.571       5.358       5.050       4.632       4.255       4.086       4.097       4.182       4.217       4.240    
        4.227       4.188       4.103       3.928       3.637       3.240       2.881       2.452       1.984       1.658    
        1.396       1.210       1.063      0.9360      0.7966      0.6315      0.4715      0.3543      0.2160       0.000    
  29    10.00       9.883       9.764       9.657       9.511       9.357       9.190       9.001       8.780       8.447    
        8.080       7.746       7.439       7.209       6.977       6.743       6.517       6.294       6.040       5.818    
        5.648       5.468       5.256       4.998       4.656       4.473       4.402       4.371       4.352       4.307    
        4.248       4.165       4.054       3.815       3.461       3.099       2.719       2.284       1.924       1.686    
        1.471       1.266       1.105      0.9817      0.8458      0.6765      0.5116      0.3746      0.2184       0.000    
  30    10.00       9.893       9.795       9.701       9.575       9.433       9.284       9.075       8.800       8.463    
        8.085       7.746       7.490       7.263       7.035       6.808       6.619       6.428       6.198       5.961    
        5.757       5.591       5.407       5.222       5.002       4.802       4.719       4.590       4.511       4.397    
        4.267       4.124       3.957       3.700       3.404       3.056       2.661       2.256       1.990       1.771    
        1.526       1.324       1.170       1.022      0.8686      0.7186      0.5456      0.3907      0.2361       0.000    
  31    10.00       9.912       9.827       9.739       9.648       9.536       9.375       9.130       8.813       8.463    
        8.100       7.784       7.542       7.310       7.108       6.898       6.699       6.553       6.332       6.103    
        5.908       5.735       5.573       5.402       5.260       5.101       4.945       4.796       4.638       4.472    
        4.274       4.077       3.899       3.687       3.389       3.022       2.643       2.306       2.089       1.891    
        1.638       1.404       1.223       1.067      0.9143      0.7552      0.5814      0.4178      0.2300       0.000    
  32    10.00       9.925       9.861       9.784       9.696       9.596       9.436       9.161       8.865       8.546    
        8.163       7.837       7.596       7.378       7.174       6.998       6.822       6.638       6.459       6.242    
        6.035       5.848       5.688       5.529       5.399       5.288       5.114       4.937       4.727       4.502    
        4.287       4.087       3.890       3.681       3.396       3.063       2.743       2.446       2.214       1.991    
        1.755       1.511       1.317       1.133      0.9583      0.8139      0.6358      0.4190      0.2082       0.000    
  33    10.00       9.936       9.883       9.822       9.736       9.623       9.422       9.156       8.909       8.616    
        8.245       7.922       7.673       7.437       7.249       7.097       6.942       6.759       6.560       6.361    
        6.145       5.945       5.758       5.602       5.497       5.386       5.214       4.995       4.778       4.562    
        4.348       4.159       3.956       3.689       3.417       3.114       2.838       2.599       2.356       2.113    
        1.893       1.660       1.447       1.253       1.058      0.8862      0.6856      0.4294      0.2023       0.000    
  34    10.00       9.943       9.907       9.854       9.749       9.594       9.401       9.205       8.952       8.636    
        8.311       7.997       7.733       7.498       7.328       7.208       7.043       6.859       6.643       6.455    
        6.259       6.024       5.836       5.693       5.585       5.453       5.255       5.059       4.833       4.596    
        4.416       4.243       4.059       3.794       3.510       3.230       2.975       2.760       2.509       2.263    
        2.050       1.836       1.609       1.410       1.203      0.9999      0.7436      0.4780      0.2520       0.000    
  35    10.00       9.953       9.912       9.846       9.717       9.554       9.414       9.248       9.017       8.678    
        8.334       8.045       7.780       7.577       7.430       7.295       7.126       6.923       6.716       6.507    
        6.325       6.116       5.925       5.789       5.673       5.543       5.330       5.092       4.853       4.628    
        4.490       4.329       4.129       3.926       3.680       3.379       3.119       2.942       2.686       2.406    
        2.205       1.990       1.773       1.578       1.345       1.118      0.8594      0.5737      0.2867       0.000    
  36    10.00       9.950       9.894       9.819       9.692       9.537       9.412       9.258       9.028       8.714    
        8.357       8.046       7.846       7.682       7.544       7.380       7.177       6.981       6.763       6.508    
        6.315       6.150       5.985       5.867       5.753       5.597       5.373       5.124       4.880       4.671    
        4.533       4.396       4.207       4.013       3.801       3.526       3.262       3.065       2.839       2.536    
        2.309       2.092       1.870       1.709       1.484       1.232      0.9728      0.6740      0.3429       0.000    
  37    10.00       9.935       9.873       9.792       9.664       9.524       9.383       9.236       9.025       8.689    
        8.329       8.073       7.947       7.792       7.612       7.449       7.221       6.985       6.721       6.469    
        6.316       6.184       6.030       5.909       5.776       5.593       5.385       5.129       4.910       4.746    
        4.598       4.445       4.250       4.078       3.856       3.593       3.383       3.190       2.938       2.637    
        2.365       2.152       1.975       1.793       1.580       1.345       1.096      0.7613      0.4125       0.000    
  38    10.00       9.929       9.849       9.762       9.645       9.508       9.353       9.200       8.978       8.667    
        8.392       8.184       8.024       7.885       7.686       7.439       7.184       6.905       6.624       6.458    
        6.338       6.181       6.037       5.931       5.791       5.588       5.338       5.106       4.972       4.836    
        4.672       4.497       4.308       4.131       3.913       3.668       3.478       3.282       2.981       2.666    
        2.428       2.230       2.050       1.868       1.678       1.451       1.194      0.8715      0.4522       0.000    
  39    10.00       9.909       9.829       9.744       9.629       9.477       9.310       9.149       8.947       8.697    
        8.482       8.327       8.148       7.953       7.670       7.354       7.042       6.747       6.574       6.464    
        6.307       6.141       6.036       5.938       5.807       5.575       5.321       5.160       5.038       4.898    
        4.723       4.554       4.360       4.169       3.983       3.778       3.558       3.330       3.019       2.707    
        2.457       2.258       2.118       1.973       1.766       1.534       1.275      0.9237      0.4524       0.000    
  40    10.00       9.895       9.817       9.731       9.615       9.457       9.286       9.123       8.952       8.744    
        8.567       8.434       8.218       7.911       7.556       7.205       6.889       6.684       6.567       6.439    
        6.267       6.123       6.027       5.914       5.762       5.575       5.400       5.235       5.089       4.958    
        4.797       4.606       4.408       4.226       4.052       3.845       3.608       3.377       3.039       2.697    
        2.471       2.305       2.159       2.034       1.824       1.566       1.328      0.9599      0.4740       0.000    
  41    10.00       9.903       9.812       9.717       9.589       9.446       9.297       9.151       8.987       8.802    
        8.634       8.475       8.188       7.801       7.409       7.091       6.841       6.665       6.546       6.402    
        6.229       6.105       6.002       5.881       5.746       5.608       5.477       5.318       5.145       4.993    
        4.847       4.663       4.462       4.296       4.113       3.909       3.667       3.344       2.970       2.707    
        2.522       2.349       2.214       2.057       1.835       1.580       1.369       1.019      0.5218       0.000    
  42    10.00       9.906       9.805       9.718       9.607       9.473       9.324       9.162       9.016       8.874    
        8.676       8.395       8.037       7.638       7.286       7.040       6.823       6.658       6.520       6.349    
        6.190       6.076       5.971       5.883       5.766       5.663       5.540       5.360       5.175       5.038    
        4.907       4.709       4.493       4.336       4.179       3.951       3.639       3.254       2.920       2.719    
        2.572       2.424       2.256       2.052       1.822       1.616       1.404       1.061      0.5460       0.000    
  43    10.00       9.907       9.815       9.726       9.638       9.519       9.371       9.211       9.053       8.852    
        8.571       8.249       7.883       7.499       7.226       7.019       6.815       6.643       6.478       6.309    
        6.159       6.052       5.973       5.904       5.801       5.688       5.570       5.394       5.228       5.115    
        4.949       4.731       4.527       4.372       4.192       3.912       3.546       3.174       2.942       2.783    
        2.626       2.467       2.263       2.042       1.832       1.633       1.442       1.058      0.4766       0.000    
  44    10.00       9.902       9.817       9.740       9.643       9.553       9.427       9.234       9.022       8.746    
        8.463       8.124       7.724       7.444       7.232       7.005       6.783       6.589       6.409       6.258    
        6.151       6.065       5.990       5.918       5.829       5.715       5.575       5.436       5.307       5.164    
        5.005       4.807       4.577       4.358       4.146       3.861       3.479       3.157       2.970       2.816    
        2.666       2.491       2.286       2.089       1.869       1.648       1.398      0.9059      0.4004       0.000    
  45    10.00       9.902       9.832       9.744       9.653       9.572       9.390       9.171       8.923       8.652    
        8.413       8.007       7.635       7.426       7.210       6.962       6.713       6.514       6.357       6.247    
        6.170       6.093       6.014       5.928       5.833       5.728       5.611       5.493       5.387       5.240    
        5.050       4.839       4.605       4.340       4.100       3.790       3.431       3.177       3.023       2.869    
        2.674       2.471       2.291       2.113       1.921       1.684       1.261      0.7595      0.3847       0.000    
  46    10.00       9.919       9.845       9.751       9.651       9.499       9.308       9.127       8.900       8.634    
        8.291       7.919       7.620       7.359       7.138       6.894       6.645       6.490       6.371       6.270    
        6.199       6.128       6.035       5.932       5.837       5.745       5.649       5.543       5.437       5.303    
        5.126       4.905       4.646       4.347       4.012       3.679       3.416       3.242       3.071       2.894    
        2.670       2.458       2.279       2.136       1.930       1.598       1.131      0.7156      0.3636       0.000    
  47    10.00       9.937       9.868       9.771       9.598       9.414       9.251       9.097       8.893       8.562    
        8.192       7.846       7.558       7.339       7.103       6.832       6.618       6.479       6.386       6.302    
        6.226       6.144       6.052       5.950       5.857       5.776       5.691       5.586       5.465       5.332    
        5.175       4.979       4.645       4.249       3.934       3.688       3.459       3.310       3.153       2.906    
        2.640       2.417       2.250       2.133       1.875       1.479       1.050      0.6887      0.3535       0.000    
  48    10.00       9.944       9.872       9.726       9.551       9.400       9.225       9.069       8.853       8.504    
        8.101       7.787       7.554       7.292       7.018       6.775       6.614       6.479       6.389       6.327    
        6.251       6.152       6.051       5.963       5.888       5.819       5.738       5.622       5.478       5.324    
        5.161       4.938       4.592       4.267       3.991       3.746       3.532       3.364       3.161       2.865    
        2.583       2.404       2.264       2.046       1.700       1.346       1.003      0.6938      0.3733       0.000    
  49    10.00       9.942       9.838       9.708       9.565       9.388       9.213       9.038       8.769       8.400    
        8.053       7.759       7.478       7.230       7.019       6.791       6.582       6.460       6.400       6.341    
        6.269       6.158       6.046       5.973       5.911       5.857       5.766       5.626       5.463       5.315    
        5.145       4.872       4.580       4.362       4.109       3.822       3.563       3.359       3.125       2.809    
        2.581       2.425       2.216       1.887       1.580       1.290      0.9917      0.6938      0.3721       0.000    
  50    10.00       9.934       9.826       9.693       9.564       9.399       9.203       8.984       8.702       8.410    
        8.047       7.679       7.418       7.221       7.042       6.784       6.553       6.462       6.409       6.349    
        6.278       6.163       6.048       5.977       5.925       5.875       5.772       5.612       5.447       5.306    
        5.132       4.850       4.624       4.428       4.164       3.879       3.608       3.329       3.009       2.745    
        2.627       2.449       2.128       1.797       1.568       1.288       1.006      0.6796      0.3030       0.000    

 HEAD WILL BE SAVED ON UNIT   51 AT END OF TIME STEP  66, STRESS PERIOD    2

 DRAWDOWN WILL BE SAVED ON UNIT   52 AT END OF TIME STEP  66, STRESS PERIOD    2
1
  VOLUMETRIC BUDGET FOR ENTIRE MODEL AT END OF TIME STEP 66 IN STRESS PERIOD   2
  ------------------------------------------------------------------------------

     CUMULATIVE VOLUMES      L**3       RATES FOR THIS TIME STEP      L**3/T
     ------------------                 ------------------------

           IN:                                      IN:
           ---                                      ---
             STORAGE =       31674.8242               STORAGE =         432.0628
       CONSTANT HEAD =       41147.8750         CONSTANT HEAD =         653.3470
               WELLS =           0.0000                 WELLS =           0.0000

            TOTAL IN =       72822.7031              TOTAL IN =        1085.4098

          OUT:                                     OUT:
          ----                                     ----
             STORAGE =       9.4320E-03               STORAGE =           0.0000
       CONSTANT HEAD =       39822.6836         CONSTANT HEAD =         585.4103
               WELLS =       33000.0000                 WELLS =         500.0000

           TOTAL OUT =       72822.6953             TOTAL OUT =        1085.4104

            IN - OUT =       7.8125E-03              IN - OUT =      -6.1035E-04

 PERCENT DISCREPANCY =           0.00     PERCENT DISCREPANCY =           0.00






          TIME SUMMARY AT END OF TIME STEP  66 IN STRESS PERIOD    2
                    SECONDS     MINUTES      HOURS       DAYS        YEARS
                    -----------------------------------------------------------
   TIME STEP LENGTH  86400.      1440.0      24.000      1.0000     2.73785E-03
 STRESS PERIOD TIME 5.70240E+06  95040.      1584.0      66.000     0.18070    
         TOTAL TIME 5.78880E+06  96480.      1608.0      67.000     0.18344    
1
 
 SOLVING FOR HEAD 

 OUTPUT CONTROL FOR STRESS PERIOD    2   TIME STEP  67
    SAVE HEAD FOR ALL LAYERS
    SAVE DRAWDOWN FOR ALL LAYERS
    SAVE BUDGET
    PRINT HEAD FOR ALL LAYERS
    PRINT BUDGET
 UBDSV1 SAVING "         STORAGE" ON UNIT  53 AT TIME STEP 67, STRESS PERIOD   2
 UBDSV2 SAVING "   CONSTANT HEAD" ON UNIT  53 AT TIME STEP 67, STRESS PERIOD   2
 UBDSV1 SAVING "FLOW RIGHT FACE " ON UNIT  53 AT TIME STEP 67, STRESS PERIOD   2
 UBDSV1 SAVING "FLOW FRONT FACE " ON UNIT  53 AT TIME STEP 67, STRESS PERIOD   2
1
              HEAD IN LAYER   1 AT END OF TIME STEP  67 IN STRESS PERIOD    2
  ---------------------------------------------------------------------------

            1           2           3           4           5           6           7           8           9          10
           11          12          13          14          15          16          17          18          19          20
           21          22          23          24          25          26          27          28          29          30
           31          32          33          34          35          36          37          38          39          40
           41          42          43          44          45          46          47          48          49          50
 ........................................................................................................................
   1    10.00       9.956       9.892       9.820       9.750       9.670       9.595       9.520       9.426       9.334    
        9.263       9.193       9.122       9.053       8.941       8.806       8.655       8.537       8.476       8.405    
        8.320       8.254       8.188       8.113       8.013       7.817       7.595       7.441       7.290       7.149    
        6.965       6.670       6.294       5.876       5.442       4.981       4.525       4.145       3.649       3.109    
        2.666       2.243       1.773       1.380       1.138      0.9335      0.7713      0.6539      0.4389       0.000    
   2    10.00       9.954       9.897       9.824       9.753       9.683       9.608       9.510       9.407       9.331    
        9.270       9.210       9.150       9.065       8.936       8.795       8.653       8.536       8.473       8.394    
        8.309       8.259       8.206       8.128       8.000       7.808       7.607       7.448       7.296       7.158    
        6.953       6.645       6.249       5.773       5.310       4.864       4.469       4.102       3.597       3.075    
        2.631       2.155       1.727       1.419       1.192       1.016      0.8152      0.6364      0.3551       0.000    
   3    10.00       9.948       9.891       9.826       9.764       9.692       9.596       9.493       9.420       9.352    
        9.283       9.229       9.176       9.093       8.962       8.787       8.633       8.538       8.464       8.384    
        8.315       8.262       8.207       8.102       7.963       7.791       7.617       7.492       7.315       7.135    
        6.877       6.510       6.057       5.595       5.186       4.771       4.385       3.990       3.465       2.982    
        2.602       2.165       1.774       1.493       1.268       1.086      0.8479      0.5687      0.2579       0.000    
   4    10.00       9.948       9.892       9.829       9.758       9.675       9.576       9.497       9.434       9.364    
        9.304       9.259       9.200       9.106       8.978       8.792       8.631       8.542       8.460       8.388    
        8.313       8.247       8.178       8.067       7.929       7.775       7.616       7.462       7.304       7.100    
        6.774       6.288       5.806       5.455       5.117       4.689       4.225       3.762       3.343       2.980    
        2.625       2.221       1.855       1.602       1.349       1.118      0.8236      0.5114      0.2450       0.000    
   5    10.00       9.945       9.888       9.817       9.745       9.668       9.579       9.510       9.446       9.380    
        9.328       9.283       9.206       9.096       8.954       8.785       8.648       8.551       8.469       8.372    
        8.282       8.211       8.126       8.017       7.895       7.736       7.577       7.435       7.277       7.026    
        6.556       6.008       5.623       5.349       5.014       4.554       4.075       3.656       3.344       3.017    
        2.671       2.300       1.939       1.704       1.433       1.100      0.7495      0.4559      0.2293       0.000    
   6    10.00       9.937       9.870       9.810       9.745       9.661       9.586       9.527       9.459       9.397    
        9.347       9.293       9.195       9.071       8.947       8.805       8.667       8.555       8.446       8.332    
        8.243       8.159       8.084       7.986       7.829       7.673       7.545       7.400       7.179       6.797    
        6.276       5.779       5.458       5.223       4.920       4.465       3.990       3.641       3.378       3.084    
        2.770       2.445       2.077       1.763       1.404       1.037      0.6618      0.3933      0.2165       0.000    
   7    10.00       9.925       9.859       9.804       9.736       9.666       9.599       9.544       9.480       9.420    
        9.359       9.276       9.169       9.052       8.934       8.823       8.678       8.523       8.398       8.287    
        8.192       8.111       8.047       7.923       7.762       7.630       7.500       7.303       6.943       6.452    
        5.956       5.555       5.340       5.131       4.780       4.352       4.035       3.699       3.415       3.225    
        2.929       2.583       2.150       1.702       1.301      0.9003      0.5698      0.3960      0.2039       0.000    
   8    10.00       9.924       9.865       9.802       9.734       9.672       9.613       9.557       9.499       9.441    
        9.360       9.255       9.149       9.037       8.928       8.803       8.620       8.458       8.355       8.248    
        8.142       8.073       7.977       7.843       7.701       7.564       7.344       7.034       6.578       6.147    
        5.779       5.473       5.277       5.038       4.663       4.312       4.026       3.779       3.562       3.345    
        3.057       2.623       2.092       1.614       1.197      0.8423      0.6029      0.3877      0.1859       0.000    
   9    10.00       9.936       9.864       9.796       9.745       9.693       9.634       9.574       9.510       9.448    
        9.354       9.234       9.118       9.007       8.890       8.741       8.564       8.414       8.303       8.193    
        8.100       8.010       7.878       7.750       7.619       7.447       7.127       6.712       6.284       5.971    
        5.669       5.419       5.204       4.907       4.560       4.268       4.052       3.873       3.679       3.442    
        3.097       2.624       2.084       1.610       1.205      0.8605      0.6081      0.3910      0.1999       0.000    
  10    10.00       9.933       9.857       9.802       9.755       9.705       9.651       9.600       9.525       9.432    
        9.318       9.192       9.081       8.977       8.856       8.672       8.486       8.355       8.254       8.151    
        8.063       7.937       7.792       7.647       7.492       7.241       6.829       6.399       6.037       5.786    
        5.593       5.384       5.123       4.822       4.502       4.259       4.097       3.942       3.734       3.461    
        3.067       2.577       2.085       1.681       1.303      0.9463      0.6269      0.4151      0.2232       0.000    
  11    10.00       9.919       9.858       9.811       9.765       9.722       9.673       9.601       9.498       9.394    
        9.279       9.156       9.053       8.927       8.762       8.586       8.433       8.317       8.224       8.119    
        7.987       7.826       7.628       7.463       7.202       6.850       6.499       6.184       5.883       5.699    
        5.550       5.282       4.999       4.751       4.507       4.323       4.157       3.959       3.702       3.372    
        3.002       2.625       2.155       1.758       1.399       1.046      0.7039      0.4076      0.1710       0.000    
  12    10.00       9.921       9.865       9.816       9.776       9.732       9.675       9.574       9.454       9.354    
        9.247       9.119       8.993       8.842       8.697       8.535       8.387       8.288       8.183       8.038    
        7.816       7.576       7.342       7.109       6.760       6.495       6.299       5.991       5.744       5.607    
        5.439       5.189       4.957       4.729       4.556       4.381       4.172       3.931       3.620       3.291    
        2.979       2.640       2.187       1.798       1.461       1.092      0.7401      0.3842      0.1275       0.000    
  13    10.00       9.937       9.883       9.831       9.784       9.731       9.640       9.523       9.411       9.308    
        9.188       9.062       8.931       8.774       8.614       8.461       8.353       8.229       8.091       7.802    
        7.466       7.211       6.954       6.643       6.376       6.251       6.029       5.759       5.626       5.501    
        5.303       5.089       4.907       4.740       4.593       4.431       4.183       3.859       3.562       3.254    
        2.958       2.608       2.122       1.762       1.472       1.081      0.6794      0.3313      0.1014       0.000    
  14    10.00       9.951       9.905       9.849       9.784       9.696       9.579       9.461       9.360       9.247    
        9.123       9.005       8.856       8.691       8.549       8.417       8.252       8.089       7.814       7.385    
        7.062       6.815       6.473       6.230       6.108       5.994       5.776       5.610       5.481       5.351    
        5.181       5.029       4.902       4.760       4.602       4.443       4.164       3.814       3.509       3.192    
        2.891       2.457       1.996       1.714       1.385       1.034      0.6791      0.3062      8.7211E-02   0.000    
  15    10.00       9.961       9.912       9.851       9.773       9.645       9.502       9.398       9.303       9.191    
        9.094       8.972       8.781       8.592       8.461       8.254       8.044       7.874       7.451       6.983    
        6.692       6.364       6.076       5.986       5.923       5.780       5.594       5.440       5.341       5.241    
        5.113       5.004       4.900       4.776       4.622       4.430       4.105       3.719       3.399       3.113    
        2.792       2.356       1.995       1.643       1.254      0.9447      0.6059      0.2803      9.4828E-02   0.000    
  16    10.00       9.968       9.915       9.839       9.725       9.572       9.444       9.361       9.277       9.164    
        9.047       8.867       8.628       8.446       8.256       8.017       7.877       7.530       6.937       6.529    
        6.275       5.995       5.894       5.843       5.724       5.539       5.396       5.320       5.274       5.189    
        5.082       4.984       4.896       4.771       4.586       4.326       3.956       3.626       3.377       3.079    
        2.707       2.280       1.894       1.512       1.177      0.8356      0.5428      0.2827      0.1009       0.000    
  17    10.00       9.963       9.900       9.798       9.668       9.510       9.396       9.324       9.224       9.104    
        8.893       8.641       8.440       8.254       8.010       7.771       7.477       6.924       6.433       6.180    
        5.982       5.835       5.765       5.643       5.460       5.329       5.288       5.266       5.220       5.135    
        5.042       4.956       4.864       4.738       4.472       4.133       3.850       3.639       3.400       3.042    
        2.574       2.157       1.799       1.442       1.055      0.6963      0.4622      0.2563      0.1068       0.000    
  18    10.00       9.947       9.866       9.748       9.577       9.443       9.363       9.256       9.133       8.953    
        8.685       8.475       8.286       8.002       7.684       7.355       6.944       6.465       6.166       5.974    
        5.824       5.697       5.583       5.418       5.293       5.253       5.236       5.214       5.154       5.073    
        4.995       4.910       4.793       4.597       4.325       4.055       3.837       3.665       3.366       2.926    
        2.477       2.044       1.684       1.348      0.9777      0.6417      0.3905      0.2141      9.9945E-02   0.000    
  19    10.00       9.929       9.836       9.664       9.493       9.415       9.313       9.174       9.024       8.819    
        8.581       8.373       8.071       7.666       7.335       7.013       6.573       6.186       5.997       5.872    
        5.715       5.554       5.425       5.288       5.221       5.202       5.179       5.135       5.064       4.995    
        4.920       4.826       4.674       4.476       4.258       4.033       3.849       3.630       3.205       2.773    
        2.418       1.977       1.588       1.261      0.8974      0.5779      0.3512      0.2031      0.1017       0.000    
  20    10.00       9.908       9.765       9.586       9.460       9.371       9.258       9.109       8.930       8.739    
        8.491       8.181       7.772       7.401       7.108       6.724       6.326       6.129       5.971       5.800    
        5.629       5.461       5.302       5.201       5.156       5.119       5.068       5.022       4.954       4.892    
        4.819       4.726       4.576       4.406       4.214       4.025       3.831       3.491       3.048       2.682    
        2.290       1.862       1.517       1.191      0.8529      0.5191      0.3050      0.2049      0.1035       0.000    
  21    10.00       9.855       9.707       9.561       9.429       9.328       9.205       9.014       8.833       8.647    
        8.324       7.933       7.550       7.246       6.932       6.564       6.281       6.109       5.927       5.741    
        5.533       5.341       5.202       5.099       5.022       4.954       4.912       4.871       4.801       4.753    
        4.704       4.608       4.483       4.339       4.171       3.992       3.719       3.377       2.996       2.563    
        2.169       1.768       1.470       1.171      0.7413      0.4386      0.3125      0.2281      0.1096       0.000    
  22    10.00       9.833       9.660       9.517       9.405       9.284       9.102       8.911       8.750       8.505    
        8.164       7.756       7.426       7.173       6.829       6.491       6.252       6.075       5.895       5.671    
        5.431       5.237       5.056       4.896       4.793       4.744       4.711       4.656       4.633       4.606    
        4.569       4.497       4.405       4.274       4.121       3.948       3.665       3.327       2.879       2.454    
        2.114       1.750       1.420      0.9769      0.6108      0.4397      0.3307      0.2200      8.7387E-02   0.000    
  23    10.00       9.795       9.626       9.507       9.385       9.204       8.999       8.850       8.646       8.390    
        8.044       7.681       7.426       7.107       6.737       6.442       6.241       6.078       5.875       5.606    
        5.350       5.121       4.882       4.597       4.344       4.295       4.369       4.404       4.452       4.468    
        4.454       4.407       4.329       4.225       4.079       3.900       3.638       3.218       2.748       2.398    
        2.073       1.659       1.184      0.7991      0.5961      0.4513      0.3303      0.2096      9.7621E-02   0.000    
  24    10.00       9.767       9.644       9.507       9.334       9.135       8.973       8.811       8.611       8.317    
        7.998       7.716       7.435       7.052       6.661       6.428       6.261       6.092       5.846       5.575    
        5.321       5.058       4.691       4.037       3.051       3.382       3.833       4.118       4.270       4.332    
        4.350       4.322       4.270       4.165       4.024       3.843       3.519       3.076       2.678       2.307    
        1.911       1.473       1.051      0.7631      0.5935      0.4490      0.3229      0.2447      0.1347       0.000    
  25    10.00       9.797       9.667       9.502       9.319       9.141       8.976       8.822       8.577       8.285    
        8.017       7.746       7.403       6.982       6.679       6.466       6.281       6.082       5.853       5.601    
        5.326       5.064       4.396       3.002     -0.1603       2.405       3.375       3.862       4.120       4.238    
        4.272       4.261       4.207       4.085       3.937       3.716       3.380       2.955       2.596       2.194    
        1.738       1.325      0.9802      0.7559      0.6178      0.4831      0.3531      0.2602      0.1699       0.000    
  26    10.00       9.826       9.703       9.526       9.338       9.182       9.011       8.816       8.566       8.339    
        8.108       7.748       7.316       6.958       6.737       6.545       6.324       6.066       5.823       5.607    
        5.396       5.108       4.491       3.479       2.415       2.935       3.497       3.851       4.070       4.196    
        4.227       4.213       4.143       4.024       3.880       3.641       3.201       2.808       2.504       2.013    
        1.517       1.174      0.9713      0.8203      0.6734      0.5240      0.3886      0.2847      0.1700       0.000    
  27    10.00       9.864       9.716       9.564       9.397       9.217       9.047       8.859       8.636       8.418    
        8.111       7.687       7.313       7.022       6.827       6.611       6.321       6.038       5.840       5.668    
        5.491       5.194       4.731       4.172       3.578       3.596       3.794       3.980       4.120       4.195    
        4.209       4.186       4.116       3.994       3.800       3.425       3.008       2.698       2.228       1.742    
        1.385       1.160       1.012      0.8846      0.7492      0.5769      0.4155      0.3110      0.2090       0.000    
  28    10.00       9.877       9.751       9.607       9.455       9.285       9.110       8.921       8.711       8.460    
        8.085       7.701       7.377       7.097       6.895       6.677       6.429       6.151       5.888       5.717    
        5.558       5.345       5.037       4.618       4.242       4.072       4.083       4.168       4.203       4.226    
        4.214       4.175       4.091       3.916       3.627       3.232       2.874       2.447       1.980       1.656    
        1.394       1.208       1.062      0.9348      0.7956      0.6307      0.4709      0.3539      0.2158       0.000    
  29    10.00       9.882       9.763       9.655       9.509       9.354       9.186       8.997       8.775       8.441    
        8.073       7.737       7.430       7.199       6.967       6.732       6.505       6.283       6.028       5.805    
        5.635       5.455       5.243       4.985       4.643       4.459       4.388       4.358       4.338       4.294    
        4.236       4.153       4.043       3.805       3.453       3.092       2.714       2.280       1.921       1.684    
        1.469       1.264       1.104      0.9804      0.8447      0.6757      0.5110      0.3742      0.2181       0.000    
  30    10.00       9.893       9.794       9.700       9.573       9.431       9.281       9.072       8.796       8.457    
        8.078       7.738       7.481       7.254       7.026       6.798       6.608       6.417       6.186       5.949    
        5.745       5.579       5.394       5.209       4.989       4.789       4.706       4.577       4.498       4.385    
        4.255       4.113       3.947       3.691       3.397       3.050       2.656       2.253       1.987       1.768    
        1.524       1.323       1.168       1.020      0.8676      0.7178      0.5449      0.3902      0.2358       0.000    
  31    10.00       9.911       9.826       9.738       9.646       9.534       9.372       9.127       8.809       8.457    
        8.093       7.777       7.533       7.301       7.098       6.888       6.689       6.542       6.321       6.092    
        5.896       5.723       5.560       5.390       5.248       5.089       4.932       4.784       4.626       4.461    
        4.264       4.068       3.891       3.679       3.383       3.017       2.639       2.303       2.086       1.889    
        1.636       1.403       1.222       1.065      0.9132      0.7543      0.5807      0.4173      0.2297       0.000    
  32    10.00       9.925       9.860       9.783       9.695       9.594       9.434       9.158       8.861       8.541    
        8.157       7.829       7.587       7.369       7.165       6.989       6.812       6.627       6.448       6.230    
        6.024       5.836       5.677       5.518       5.387       5.276       5.102       4.925       4.716       4.492    
        4.279       4.079       3.883       3.675       3.391       3.059       2.739       2.443       2.211       1.989    
        1.753       1.509       1.316       1.132      0.9573      0.8131      0.6351      0.4186      0.2080       0.000    
  33    10.00       9.936       9.883       9.821       9.735       9.622       9.420       9.153       8.905       8.611    
        8.239       7.915       7.665       7.429       7.240       7.088       6.932       6.749       6.550       6.350    
        6.134       5.933       5.746       5.591       5.486       5.374       5.203       4.985       4.769       4.553    
        4.340       4.152       3.949       3.683       3.412       3.109       2.835       2.596       2.354       2.111    
        1.891       1.659       1.445       1.252       1.057      0.8854      0.6850      0.4291      0.2022       0.000    
  34    10.00       9.942       9.907       9.853       9.748       9.593       9.399       9.203       8.949       8.631    
        8.305       7.991       7.725       7.491       7.320       7.199       7.034       6.850       6.634       6.445    
        6.249       6.013       5.826       5.682       5.574       5.443       5.245       5.049       4.825       4.589    
        4.409       4.237       4.053       3.789       3.506       3.226       2.972       2.757       2.507       2.261    
        2.048       1.834       1.607       1.409       1.202      0.9992      0.7431      0.4777      0.2518       0.000    
  35    10.00       9.953       9.912       9.845       9.716       9.553       9.412       9.245       9.014       8.674    
        8.328       8.039       7.773       7.570       7.422       7.287       7.117       6.915       6.707       6.498    
        6.316       6.107       5.916       5.780       5.663       5.533       5.321       5.083       4.845       4.622    
        4.485       4.323       4.124       3.921       3.676       3.375       3.116       2.939       2.683       2.404    
        2.203       1.988       1.772       1.577       1.344       1.118      0.8589      0.5734      0.2866       0.000    
  36    10.00       9.950       9.893       9.818       9.691       9.536       9.410       9.256       9.025       8.710    
        8.352       8.040       7.840       7.676       7.537       7.372       7.170       6.973       6.754       6.500    
        6.307       6.142       5.977       5.859       5.744       5.588       5.366       5.118       4.874       4.666    
        4.528       4.391       4.203       4.009       3.797       3.523       3.259       3.063       2.837       2.534    
        2.307       2.090       1.869       1.708       1.483       1.231      0.9724      0.6737      0.3427       0.000    
  37    10.00       9.935       9.873       9.792       9.663       9.522       9.381       9.233       9.023       8.685    
        8.325       8.068       7.942       7.786       7.606       7.442       7.214       6.977       6.714       6.462    
        6.308       6.177       6.022       5.901       5.769       5.586       5.379       5.124       4.905       4.742    
        4.594       4.441       4.246       4.074       3.853       3.590       3.381       3.188       2.936       2.635    
        2.363       2.151       1.974       1.792       1.579       1.344       1.096      0.7611      0.4124       0.000    
  38    10.00       9.928       9.848       9.762       9.644       9.507       9.352       9.198       8.975       8.664    
        8.388       8.179       8.019       7.879       7.680       7.433       7.178       6.899       6.618       6.452    
        6.332       6.174       6.031       5.925       5.784       5.582       5.333       5.102       4.968       4.832    
        4.668       4.494       4.304       4.128       3.910       3.665       3.476       3.280       2.979       2.664    
        2.427       2.229       2.049       1.868       1.677       1.451       1.194      0.8712      0.4521       0.000    
  39    10.00       9.909       9.829       9.743       9.628       9.475       9.309       9.147       8.945       8.694    
        8.478       8.323       8.144       7.948       7.665       7.349       7.037       6.741       6.569       6.459    
        6.302       6.136       6.031       5.933       5.802       5.570       5.318       5.156       5.035       4.894    
        4.720       4.551       4.358       4.167       3.980       3.776       3.556       3.328       3.017       2.705    
        2.456       2.257       2.117       1.972       1.765       1.533       1.274      0.9234      0.4523       0.000    
  40    10.00       9.894       9.817       9.731       9.615       9.456       9.285       9.122       8.950       8.742    
        8.564       8.431       8.214       7.907       7.551       7.200       6.884       6.679       6.562       6.435    
        6.263       6.119       6.023       5.910       5.758       5.572       5.397       5.232       5.086       4.955    
        4.794       4.603       4.406       4.224       4.050       3.842       3.606       3.375       3.037       2.696    
        2.470       2.304       2.158       2.033       1.823       1.566       1.328      0.9596      0.4739       0.000    
  41    10.00       9.903       9.811       9.717       9.589       9.445       9.295       9.149       8.985       8.799    
        8.631       8.472       8.185       7.797       7.406       7.087       6.837       6.661       6.542       6.398    
        6.225       6.102       5.998       5.878       5.742       5.605       5.474       5.315       5.142       4.990    
        4.844       4.661       4.460       4.293       4.111       3.907       3.665       3.343       2.968       2.706    
        2.522       2.348       2.213       2.056       1.835       1.579       1.368       1.018      0.5217       0.000    
  42    10.00       9.906       9.805       9.718       9.606       9.472       9.323       9.161       9.014       8.872    
        8.673       8.392       8.034       7.635       7.283       7.037       6.820       6.654       6.517       6.345    
        6.187       6.072       5.968       5.880       5.763       5.660       5.538       5.357       5.173       5.036    
        4.905       4.707       4.491       4.334       4.177       3.949       3.637       3.252       2.919       2.718    
        2.571       2.423       2.256       2.051       1.822       1.616       1.403       1.061      0.5458       0.000    
  43    10.00       9.907       9.815       9.726       9.637       9.518       9.370       9.210       9.051       8.850    
        8.569       8.247       7.881       7.497       7.223       7.016       6.812       6.640       6.475       6.306    
        6.156       6.050       5.971       5.902       5.799       5.686       5.567       5.392       5.225       5.112    
        4.947       4.729       4.525       4.370       4.190       3.911       3.545       3.173       2.941       2.782    
        2.625       2.466       2.262       2.041       1.831       1.632       1.441       1.057      0.4764       0.000    
  44    10.00       9.902       9.817       9.740       9.643       9.552       9.427       9.233       9.021       8.745    
        8.461       8.122       7.722       7.442       7.230       7.002       6.780       6.586       6.407       6.256    
        6.148       6.062       5.987       5.915       5.826       5.712       5.573       5.434       5.304       5.161    
        5.002       4.805       4.575       4.356       4.145       3.860       3.478       3.156       2.969       2.815    
        2.666       2.490       2.285       2.088       1.868       1.647       1.398      0.9056      0.4003       0.000    
  45    10.00       9.902       9.832       9.744       9.652       9.571       9.390       9.171       8.922       8.650    
        8.411       8.006       7.633       7.424       7.208       6.960       6.710       6.512       6.354       6.245    
        6.167       6.091       6.012       5.925       5.830       5.726       5.609       5.490       5.385       5.238    
        5.047       4.837       4.603       4.339       4.098       3.789       3.430       3.176       3.022       2.868    
        2.673       2.471       2.291       2.113       1.921       1.683       1.261      0.7593      0.3846       0.000    
  46    10.00       9.919       9.844       9.751       9.650       9.499       9.308       9.127       8.899       8.633    
        8.290       7.917       7.618       7.357       7.136       6.892       6.643       6.488       6.369       6.268    
        6.196       6.125       6.032       5.929       5.835       5.742       5.646       5.541       5.435       5.301    
        5.123       4.903       4.644       4.345       4.011       3.677       3.415       3.241       3.070       2.893    
        2.669       2.458       2.279       2.135       1.929       1.598       1.131      0.7154      0.3635       0.000    
  47    10.00       9.937       9.868       9.770       9.597       9.414       9.251       9.096       8.893       8.561    
        8.191       7.844       7.556       7.337       7.101       6.830       6.616       6.477       6.383       6.300    
        6.223       6.141       6.050       5.948       5.854       5.774       5.689       5.584       5.462       5.329    
        5.173       4.977       4.643       4.248       3.933       3.687       3.458       3.309       3.152       2.905    
        2.639       2.416       2.249       2.133       1.874       1.478       1.050      0.6886      0.3534       0.000    
  48    10.00       9.944       9.872       9.726       9.551       9.399       9.225       9.068       8.852       8.502    
        8.100       7.785       7.552       7.291       7.016       6.773       6.612       6.477       6.386       6.325    
        6.248       6.150       6.049       5.960       5.885       5.817       5.736       5.620       5.476       5.321    
        5.159       4.936       4.591       4.266       3.990       3.745       3.531       3.363       3.160       2.864    
        2.582       2.404       2.264       2.045       1.700       1.346       1.003      0.6936      0.3732       0.000    
  49    10.00       9.942       9.838       9.707       9.564       9.388       9.212       9.037       8.769       8.399    
        8.052       7.758       7.476       7.229       7.017       6.788       6.580       6.458       6.398       6.339    
        6.267       6.156       6.044       5.970       5.908       5.854       5.763       5.624       5.461       5.313    
        5.143       4.870       4.578       4.360       4.107       3.821       3.562       3.358       3.124       2.809    
        2.581       2.424       2.216       1.886       1.579       1.290      0.9915      0.6936      0.3720       0.000    
  50    10.00       9.934       9.826       9.693       9.563       9.398       9.202       8.983       8.701       8.409    
        8.046       7.678       7.417       7.219       7.040       6.782       6.551       6.460       6.407       6.347    
        6.275       6.161       6.046       5.975       5.922       5.872       5.769       5.610       5.445       5.304    
        5.130       4.849       4.622       4.427       4.163       3.878       3.607       3.328       3.008       2.744    
        2.626       2.449       2.127       1.797       1.568       1.288       1.005      0.6794      0.3029       0.000    

 HEAD WILL BE SAVED ON UNIT   51 AT END OF TIME STEP  67, STRESS PERIOD    2

 DRAWDOWN WILL BE SAVED ON UNIT   52 AT END OF TIME STEP  67, STRESS PERIOD    2
1
  VOLUMETRIC BUDGET FOR ENTIRE MODEL AT END OF TIME STEP 67 IN STRESS PERIOD   2
  ------------------------------------------------------------------------------

     CUMULATIVE VOLUMES      L**3       RATES FOR THIS TIME STEP      L**3/T
     ------------------                 ------------------------

           IN:                                      IN:
           ---                                      ---
             STORAGE =       32104.7930               STORAGE =         429.9690
       CONSTANT HEAD =       41802.8086         CONSTANT HEAD =         654.9319
               WELLS =           0.0000                 WELLS =           0.0000

            TOTAL IN =       73907.6016              TOTAL IN =        1084.9010

          OUT:                                     OUT:
          ----                                     ----
             STORAGE =       9.4320E-03               STORAGE =           0.0000
       CONSTANT HEAD =       40407.5820         CONSTANT HEAD =         584.9003
               WELLS =       33500.0000                 WELLS =         500.0000

           TOTAL OUT =       73907.5938             TOTAL OUT =        1084.9004

            IN - OUT =       7.8125E-03              IN - OUT =       6.1035E-04

 PERCENT DISCREPANCY =           0.00     PERCENT DISCREPANCY =           0.00






          TIME SUMMARY AT END OF TIME STEP  67 IN STRESS PERIOD    2
                    SECONDS     MINUTES      HOURS       DAYS        YEARS
                    -----------------------------------------------------------
   TIME STEP LENGTH  86400.      1440.0      24.000      1.0000     2.73785E-03
 STRESS PERIOD TIME 5.78880E+06  96480.      1608.0      67.000     0.18344    
         TOTAL TIME 5.87520E+06  97920.      1632.0      68.000     0.18617    
1
 
 SOLVING FOR HEAD 

 OUTPUT CONTROL FOR STRESS PERIOD    2   TIME STEP  68
    SAVE HEAD FOR ALL LAYERS
    SAVE DRAWDOWN FOR ALL LAYERS
    SAVE BUDGET
    PRINT HEAD FOR ALL LAYERS
    PRINT BUDGET
 UBDSV1 SAVING "         STORAGE" ON UNIT  53 AT TIME STEP 68, STRESS PERIOD   2
 UBDSV2 SAVING "   CONSTANT HEAD" ON UNIT  53 AT TIME STEP 68, STRESS PERIOD   2
 UBDSV1 SAVING "FLOW RIGHT FACE " ON UNIT  53 AT TIME STEP 68, STRESS PERIOD   2
 UBDSV1 SAVING "FLOW FRONT FACE " ON UNIT  53 AT TIME STEP 68, STRESS PERIOD   2
1
              HEAD IN LAYER   1 AT END OF TIME STEP  68 IN STRESS PERIOD    2
  ---------------------------------------------------------------------------

            1           2           3           4           5           6           7           8           9          10
           11          12          13          14          15          16          17          18          19          20
           21          22          23          24          25          26          27          28          29          30
           31          32          33          34          35          36          37          38          39          40
           41          42          43          44          45          46          47          48          49          50
 ........................................................................................................................
   1    10.00       9.955       9.892       9.820       9.749       9.669       9.594       9.519       9.425       9.333    
        9.261       9.191       9.120       9.051       8.938       8.803       8.652       8.533       8.472       8.401    
        8.317       8.250       8.185       8.109       8.009       7.813       7.591       7.436       7.286       7.144    
        6.961       6.666       6.290       5.872       5.439       4.978       4.522       4.142       3.646       3.107    
        2.664       2.241       1.772       1.379       1.137      0.9327      0.7707      0.6533      0.4385       0.000    
   2    10.00       9.954       9.897       9.824       9.753       9.682       9.607       9.509       9.405       9.330    
        9.268       9.208       9.148       9.062       8.934       8.792       8.650       8.533       8.470       8.391    
        8.306       8.255       8.202       8.124       7.997       7.804       7.603       7.444       7.292       7.154    
        6.949       6.641       6.245       5.769       5.307       4.861       4.466       4.099       3.594       3.072    
        2.629       2.153       1.726       1.418       1.191       1.015      0.8145      0.6359      0.3548       0.000    
   3    10.00       9.948       9.891       9.826       9.763       9.692       9.595       9.491       9.419       9.350    
        9.282       9.227       9.174       9.091       8.959       8.785       8.630       8.535       8.461       8.380    
        8.311       8.259       8.204       8.098       7.959       7.787       7.613       7.488       7.310       7.131    
        6.872       6.506       6.053       5.591       5.182       4.767       4.381       3.986       3.462       2.979    
        2.599       2.163       1.773       1.491       1.267       1.085      0.8472      0.5682      0.2576       0.000    
   4    10.00       9.948       9.892       9.829       9.758       9.674       9.575       9.496       9.433       9.363    
        9.302       9.257       9.198       9.103       8.975       8.789       8.628       8.539       8.456       8.384    
        8.309       8.244       8.174       8.063       7.925       7.771       7.612       7.457       7.299       7.095    
        6.770       6.283       5.801       5.450       5.112       4.685       4.221       3.758       3.340       2.977    
        2.623       2.219       1.853       1.600       1.348       1.117      0.8229      0.5109      0.2448       0.000    
   5    10.00       9.945       9.888       9.817       9.745       9.667       9.578       9.509       9.444       9.379    
        9.326       9.282       9.204       9.093       8.952       8.782       8.645       8.548       8.466       8.368    
        8.278       8.207       8.122       8.013       7.890       7.731       7.573       7.430       7.272       7.021    
        6.551       6.004       5.618       5.344       5.010       4.550       4.071       3.652       3.341       3.014    
        2.668       2.298       1.937       1.702       1.432       1.099      0.7489      0.4555      0.2291       0.000    
   6    10.00       9.937       9.869       9.810       9.744       9.660       9.585       9.526       9.457       9.396    
        9.346       9.291       9.193       9.069       8.944       8.802       8.664       8.551       8.442       8.329    
        8.239       8.154       8.080       7.982       7.825       7.668       7.541       7.395       7.174       6.792    
        6.271       5.773       5.453       5.218       4.915       4.460       3.986       3.637       3.375       3.081    
        2.767       2.443       2.075       1.761       1.403       1.036      0.6612      0.3929      0.2163       0.000    
   7    10.00       9.924       9.859       9.804       9.736       9.666       9.598       9.542       9.479       9.418    
        9.357       9.275       9.167       9.050       8.932       8.820       8.675       8.520       8.394       8.283    
        8.188       8.107       8.043       7.919       7.757       7.626       7.496       7.298       6.938       6.446    
        5.950       5.549       5.334       5.126       4.775       4.347       4.031       3.695       3.411       3.221    
        2.926       2.580       2.148       1.701       1.300      0.8994      0.5692      0.3956      0.2037       0.000    
   8    10.00       9.924       9.865       9.802       9.734       9.671       9.612       9.556       9.498       9.439    
        9.358       9.253       9.146       9.035       8.926       8.800       8.617       8.454       8.351       8.244    
        8.138       8.069       7.972       7.838       7.696       7.559       7.338       7.029       6.572       6.141    
        5.772       5.467       5.271       5.033       4.657       4.306       4.021       3.774       3.558       3.341    
        3.054       2.620       2.090       1.613       1.196      0.8415      0.6023      0.3873      0.1857       0.000    
   9    10.00       9.936       9.864       9.795       9.744       9.692       9.633       9.573       9.509       9.446    
        9.352       9.232       9.116       9.004       8.887       8.738       8.560       8.410       8.299       8.189    
        8.095       8.005       7.874       7.745       7.613       7.442       7.121       6.705       6.277       5.964    
        5.662       5.412       5.198       4.901       4.554       4.262       4.047       3.868       3.675       3.438    
        3.093       2.621       2.082       1.608       1.203      0.8596      0.6074      0.3906      0.1997       0.000    
  10    10.00       9.933       9.857       9.801       9.754       9.704       9.650       9.599       9.523       9.430    
        9.316       9.190       9.078       8.974       8.853       8.668       8.482       8.351       8.249       8.146    
        8.058       7.932       7.786       7.641       7.487       7.235       6.822       6.392       6.030       5.778    
        5.586       5.376       5.116       4.815       4.496       4.253       4.092       3.937       3.729       3.456    
        3.063       2.574       2.082       1.679       1.301      0.9452      0.6262      0.4147      0.2229       0.000    
  11    10.00       9.919       9.857       9.811       9.764       9.721       9.672       9.600       9.497       9.392    
        9.277       9.154       9.050       8.924       8.758       8.582       8.428       8.313       8.219       8.115    
        7.982       7.821       7.623       7.456       7.195       6.843       6.492       6.176       5.875       5.691    
        5.542       5.274       4.991       4.744       4.500       4.317       4.151       3.953       3.697       3.368    
        2.998       2.622       2.152       1.756       1.397       1.045      0.7032      0.4072      0.1708       0.000    
  12    10.00       9.921       9.864       9.815       9.776       9.731       9.674       9.572       9.453       9.352    
        9.245       9.116       8.990       8.839       8.693       8.531       8.383       8.283       8.178       8.033    
        7.811       7.569       7.335       7.102       6.752       6.487       6.290       5.982       5.735       5.599    
        5.430       5.180       4.949       4.721       4.549       4.375       4.166       3.926       3.615       3.286    
        2.975       2.636       2.184       1.796       1.459       1.090      0.7392      0.3838      0.1274       0.000    
  13    10.00       9.936       9.882       9.830       9.783       9.730       9.639       9.522       9.409       9.306    
        9.186       9.059       8.928       8.770       8.610       8.457       8.348       8.224       8.086       7.796    
        7.459       7.204       6.946       6.634       6.367       6.241       6.020       5.749       5.616       5.491    
        5.294       5.080       4.899       4.732       4.586       4.424       4.176       3.853       3.557       3.249    
        2.953       2.604       2.119       1.760       1.471       1.080      0.6786      0.3309      0.1013       0.000    
  14    10.00       9.951       9.904       9.849       9.784       9.695       9.577       9.460       9.358       9.244    
        9.120       9.002       8.852       8.687       8.544       8.412       8.247       8.084       7.808       7.377    
        7.054       6.807       6.463       6.221       6.098       5.984       5.766       5.600       5.471       5.341    
        5.171       5.020       4.893       4.751       4.594       4.436       4.157       3.807       3.503       3.187    
        2.886       2.453       1.993       1.711       1.383       1.032      0.6782      0.3058      8.7097E-02   0.000    
  15    10.00       9.960       9.912       9.851       9.772       9.643       9.500       9.396       9.301       9.188    
        9.091       8.968       8.777       8.588       8.456       8.248       8.038       7.867       7.444       6.974    
        6.683       6.354       6.065       5.976       5.912       5.769       5.584       5.429       5.330       5.231    
        5.103       4.994       4.891       4.767       4.614       4.422       4.097       3.712       3.394       3.108    
        2.787       2.352       1.992       1.641       1.252      0.9433      0.6051      0.2799      9.4696E-02   0.000    
  16    10.00       9.967       9.915       9.839       9.724       9.570       9.442       9.359       9.275       9.162    
        9.044       8.863       8.623       8.440       8.251       8.011       7.870       7.522       6.928       6.519    
        6.264       5.984       5.883       5.832       5.713       5.528       5.384       5.309       5.263       5.178    
        5.072       4.974       4.887       4.761       4.577       4.317       3.948       3.620       3.371       3.073    
        2.703       2.276       1.890       1.509       1.176      0.8343      0.5420      0.2822      0.1008       0.000    
  17    10.00       9.962       9.899       9.798       9.667       9.508       9.394       9.322       9.221       9.101    
        8.889       8.636       8.435       8.248       8.003       7.764       7.469       6.914       6.422       6.169    
        5.970       5.823       5.753       5.631       5.448       5.317       5.276       5.254       5.209       5.124    
        5.031       4.946       4.854       4.728       4.462       4.125       3.842       3.631       3.394       3.036    
        2.569       2.154       1.796       1.439       1.053      0.6952      0.4615      0.2560      0.1066       0.000    
  18    10.00       9.947       9.866       9.747       9.575       9.441       9.361       9.253       9.130       8.949    
        8.680       8.469       8.280       7.995       7.676       7.346       6.934       6.454       6.155       5.962    
        5.812       5.685       5.571       5.406       5.281       5.241       5.224       5.202       5.143       5.062    
        4.984       4.899       4.783       4.587       4.315       4.046       3.829       3.657       3.359       2.920    
        2.472       2.040       1.681       1.346      0.9760      0.6406      0.3898      0.2138      9.9790E-02   0.000    
  19    10.00       9.929       9.835       9.662       9.491       9.412       9.311       9.170       9.020       8.814    
        8.576       8.367       8.064       7.658       7.326       7.003       6.562       6.174       5.986       5.860    
        5.703       5.542       5.412       5.275       5.208       5.190       5.167       5.123       5.052       4.983    
        4.908       4.815       4.663       4.466       4.248       4.024       3.840       3.622       3.199       2.767    
        2.413       1.973       1.585       1.259      0.8959      0.5769      0.3506      0.2028      0.1015       0.000    
  20    10.00       9.908       9.764       9.585       9.458       9.368       9.255       9.105       8.926       8.734    
        8.485       8.174       7.763       7.392       7.098       6.713       6.315       6.117       5.959       5.788    
        5.617       5.448       5.290       5.189       5.144       5.107       5.055       5.010       4.942       4.880    
        4.807       4.715       4.565       4.396       4.204       4.016       3.822       3.483       3.041       2.677    
        2.286       1.858       1.514       1.189      0.8514      0.5183      0.3045      0.2046      0.1033       0.000    
  21    10.00       9.854       9.706       9.559       9.427       9.325       9.201       9.010       8.828       8.642    
        8.318       7.925       7.540       7.236       6.921       6.553       6.269       6.097       5.915       5.729    
        5.520       5.329       5.189       5.086       5.009       4.942       4.900       4.859       4.788       4.741    
        4.692       4.596       4.471       4.328       4.161       3.982       3.710       3.369       2.989       2.557    
        2.165       1.764       1.467       1.169      0.7401      0.4378      0.3120      0.2277      0.1095       0.000    
  22    10.00       9.832       9.658       9.515       9.402       9.281       9.098       8.907       8.745       8.499    
        8.157       7.748       7.416       7.163       6.819       6.480       6.241       6.063       5.883       5.658    
        5.418       5.224       5.043       4.883       4.780       4.731       4.698       4.643       4.620       4.593    
        4.557       4.484       4.393       4.263       4.110       3.938       3.656       3.319       2.873       2.449    
        2.110       1.747       1.417      0.9752      0.6098      0.4390      0.3302      0.2197      8.7254E-02   0.000    
  23    10.00       9.795       9.624       9.505       9.382       9.201       8.995       8.845       8.640       8.384    
        8.036       7.672       7.417       7.097       6.726       6.431       6.229       6.066       5.863       5.593    
        5.337       5.108       4.869       4.584       4.331       4.282       4.356       4.391       4.439       4.455    
        4.441       4.394       4.316       4.213       4.068       3.890       3.629       3.210       2.742       2.393    
        2.069       1.656       1.182      0.7978      0.5951      0.4506      0.3298      0.2093      9.7478E-02   0.000    
  24    10.00       9.766       9.642       9.505       9.331       9.131       8.969       8.806       8.605       8.310    
        7.990       7.708       7.426       7.041       6.650       6.416       6.249       6.080       5.834       5.562    
        5.308       5.045       4.678       4.024       3.037       3.368       3.820       4.104       4.257       4.319    
        4.337       4.310       4.258       4.153       4.012       3.832       3.509       3.068       2.672       2.302    
        1.907       1.470       1.050      0.7619      0.5926      0.4483      0.3224      0.2443      0.1345       0.000    
  25    10.00       9.796       9.665       9.499       9.316       9.138       8.972       8.817       8.571       8.278    
        8.010       7.737       7.394       6.972       6.668       6.455       6.269       6.070       5.840       5.588    
        5.314       5.051       4.383       2.988     -0.1752       2.391       3.361       3.848       4.106       4.224    
        4.258       4.248       4.195       4.074       3.926       3.706       3.371       2.948       2.590       2.190    
        1.735       1.322      0.9787      0.7548      0.6169      0.4824      0.3526      0.2598      0.1696       0.000    
  26    10.00       9.825       9.702       9.524       9.335       9.179       9.007       8.812       8.560       8.332    
        8.101       7.740       7.306       6.948       6.726       6.534       6.312       6.054       5.811       5.595    
        5.383       5.095       4.478       3.465       2.401       2.921       3.483       3.837       4.056       4.182    
        4.214       4.200       4.130       4.012       3.869       3.631       3.193       2.802       2.499       2.009    
        1.514       1.172      0.9699      0.8192      0.6725      0.5233      0.3881      0.2843      0.1698       0.000    
  27    10.00       9.864       9.714       9.562       9.394       9.214       9.043       8.854       8.630       8.412    
        8.104       7.679       7.303       7.011       6.816       6.600       6.310       6.026       5.828       5.656    
        5.478       5.181       4.718       4.159       3.564       3.582       3.780       3.966       4.106       4.181    
        4.196       4.173       4.104       3.982       3.789       3.416       3.001       2.692       2.223       1.739    
        1.383       1.159       1.011      0.8834      0.7482      0.5761      0.4149      0.3106      0.2088       0.000    
  28    10.00       9.876       9.750       9.605       9.452       9.282       9.106       8.916       8.705       8.454    
        8.078       7.692       7.367       7.087       6.884       6.666       6.418       6.139       5.876       5.704    
        5.546       5.332       5.024       4.605       4.228       4.058       4.069       4.154       4.190       4.213    
        4.201       4.162       4.079       3.905       3.617       3.224       2.868       2.442       1.977       1.653    
        1.392       1.207       1.060      0.9336      0.7946      0.6299      0.4703      0.3534      0.2155       0.000    
  29    10.00       9.882       9.762       9.654       9.507       9.352       9.183       8.993       8.770       8.435    
        8.066       7.729       7.421       7.189       6.957       6.722       6.494       6.271       6.016       5.793    
        5.623       5.443       5.230       4.972       4.629       4.445       4.375       4.344       4.325       4.281    
        4.223       4.142       4.032       3.795       3.445       3.085       2.708       2.276       1.918       1.682    
        1.467       1.263       1.103      0.9792      0.8437      0.6749      0.5104      0.3737      0.2179       0.000    
  30    10.00       9.893       9.793       9.698       9.571       9.428       9.279       9.068       8.791       8.451    
        8.071       7.730       7.473       7.244       7.016       6.787       6.597       6.405       6.175       5.937    
        5.732       5.567       5.382       5.196       4.976       4.776       4.693       4.564       4.485       4.372    
        4.244       4.103       3.938       3.683       3.390       3.044       2.651       2.249       1.985       1.766    
        1.522       1.321       1.167       1.019      0.8665      0.7169      0.5443      0.3898      0.2355       0.000    
  31    10.00       9.911       9.825       9.737       9.645       9.533       9.370       9.123       8.804       8.452    
        8.086       7.769       7.525       7.292       7.089       6.878       6.678       6.531       6.309       6.080    
        5.884       5.711       5.548       5.378       5.236       5.077       4.920       4.771       4.614       4.450    
        4.254       4.059       3.883       3.672       3.376       3.012       2.635       2.300       2.083       1.886    
        1.633       1.401       1.220       1.064      0.9122      0.7535      0.5801      0.4169      0.2295       0.000    
  32    10.00       9.925       9.860       9.783       9.694       9.593       9.432       9.155       8.857       8.536    
        8.150       7.822       7.579       7.361       7.156       6.979       6.802       6.617       6.437       6.219    
        6.012       5.825       5.665       5.506       5.376       5.264       5.090       4.913       4.705       4.482    
        4.270       4.072       3.875       3.668       3.385       3.054       2.735       2.440       2.208       1.986    
        1.751       1.507       1.314       1.131      0.9563      0.8123      0.6345      0.4182      0.2078       0.000    
  33    10.00       9.936       9.882       9.821       9.734       9.620       9.418       9.150       8.901       8.606    
        8.233       7.908       7.658       7.421       7.231       7.079       6.923       6.739       6.539       6.340    
        6.123       5.922       5.735       5.580       5.474       5.363       5.192       4.975       4.759       4.545    
        4.332       4.145       3.942       3.677       3.407       3.105       2.831       2.593       2.351       2.108    
        1.889       1.657       1.444       1.251       1.056      0.8846      0.6845      0.4287      0.2020       0.000    
  34    10.00       9.942       9.907       9.853       9.747       9.592       9.397       9.200       8.945       8.626    
        8.300       7.984       7.718       7.483       7.312       7.191       7.026       6.841       6.624       6.436    
        6.239       6.003       5.815       5.671       5.564       5.432       5.235       5.040       4.816       4.582    
        4.402       4.230       4.047       3.784       3.501       3.222       2.969       2.754       2.504       2.259    
        2.046       1.833       1.606       1.408       1.201      0.9985      0.7427      0.4774      0.2517       0.000    
  35    10.00       9.952       9.912       9.845       9.715       9.551       9.410       9.243       9.011       8.669    
        8.323       8.033       7.767       7.562       7.415       7.279       7.109       6.906       6.698       6.489    
        6.306       6.097       5.906       5.770       5.654       5.524       5.312       5.075       4.838       4.616    
        4.479       4.318       4.119       3.917       3.672       3.372       3.113       2.937       2.681       2.402    
        2.202       1.987       1.771       1.576       1.343       1.117      0.8585      0.5731      0.2864       0.000    
  36    10.00       9.950       9.893       9.818       9.690       9.535       9.408       9.254       9.022       8.706    
        8.347       8.035       7.834       7.669       7.530       7.365       7.162       6.965       6.746       6.491    
        6.298       6.133       5.969       5.850       5.736       5.580       5.358       5.111       4.869       4.661    
        4.523       4.387       4.199       4.005       3.794       3.520       3.257       3.060       2.834       2.532    
        2.306       2.089       1.868       1.707       1.482       1.230      0.9720      0.6735      0.3426       0.000    
  37    10.00       9.935       9.873       9.791       9.662       9.521       9.380       9.231       9.020       8.682    
        8.320       8.062       7.936       7.780       7.599       7.435       7.207       6.970       6.707       6.455    
        6.301       6.170       6.015       5.894       5.761       5.579       5.372       5.118       4.901       4.738    
        4.589       4.437       4.243       4.071       3.850       3.588       3.378       3.186       2.934       2.634    
        2.362       2.149       1.973       1.792       1.578       1.344       1.096      0.7608      0.4122       0.000    
  38    10.00       9.928       9.848       9.761       9.643       9.506       9.350       9.196       8.973       8.661    
        8.384       8.175       8.014       7.874       7.674       7.426       7.171       6.893       6.612       6.446    
        6.325       6.168       6.025       5.918       5.778       5.576       5.328       5.098       4.964       4.829    
        4.665       4.490       4.301       4.125       3.907       3.663       3.473       3.278       2.978       2.663    
        2.426       2.228       2.048       1.867       1.676       1.450       1.193      0.8709      0.4519       0.000    
  39    10.00       9.909       9.829       9.743       9.627       9.474       9.307       9.145       8.943       8.691    
        8.475       8.319       8.139       7.943       7.660       7.344       7.032       6.736       6.564       6.454    
        6.296       6.131       6.026       5.927       5.797       5.566       5.314       5.153       5.031       4.891    
        4.716       4.548       4.355       4.164       3.978       3.773       3.554       3.326       3.016       2.704    
        2.455       2.257       2.116       1.971       1.764       1.533       1.274      0.9231      0.4522       0.000    
  40    10.00       9.894       9.816       9.730       9.614       9.455       9.284       9.120       8.948       8.739    
        8.561       8.427       8.210       7.902       7.547       7.196       6.880       6.675       6.558       6.430    
        6.259       6.114       6.019       5.906       5.754       5.568       5.394       5.228       5.083       4.952    
        4.791       4.601       4.403       4.222       4.048       3.840       3.604       3.373       3.036       2.695    
        2.469       2.303       2.157       2.032       1.823       1.565       1.327      0.9593      0.4737       0.000    
  41    10.00       9.902       9.811       9.716       9.588       9.444       9.294       9.148       8.983       8.797    
        8.628       8.469       8.181       7.794       7.402       7.084       6.833       6.657       6.538       6.394    
        6.222       6.098       5.995       5.874       5.739       5.602       5.471       5.312       5.139       4.987    
        4.841       4.658       4.458       4.291       4.108       3.905       3.663       3.341       2.967       2.705    
        2.521       2.348       2.212       2.055       1.834       1.579       1.368       1.018      0.5215       0.000    
  42    10.00       9.906       9.804       9.717       9.605       9.471       9.322       9.160       9.013       8.870    
        8.671       8.389       8.031       7.632       7.280       7.034       6.817       6.651       6.513       6.342    
        6.183       6.069       5.965       5.877       5.760       5.657       5.535       5.354       5.170       5.033    
        4.902       4.705       4.488       4.332       4.175       3.947       3.636       3.251       2.918       2.717    
        2.570       2.423       2.255       2.051       1.821       1.615       1.403       1.060      0.5457       0.000    
  43    10.00       9.907       9.814       9.725       9.637       9.518       9.369       9.209       9.050       8.849    
        8.567       8.245       7.878       7.494       7.220       7.013       6.809       6.637       6.472       6.303    
        6.154       6.047       5.968       5.899       5.796       5.683       5.565       5.389       5.223       5.110    
        4.944       4.726       4.523       4.368       4.188       3.909       3.543       3.172       2.939       2.781    
        2.624       2.465       2.261       2.040       1.831       1.632       1.441       1.057      0.4763       0.000    
  44    10.00       9.901       9.817       9.740       9.642       9.552       9.426       9.232       9.020       8.744    
        8.460       8.120       7.720       7.440       7.227       7.000       6.777       6.583       6.404       6.253    
        6.146       6.059       5.985       5.913       5.824       5.710       5.570       5.431       5.302       5.159    
        5.000       4.803       4.573       4.354       4.143       3.858       3.476       3.154       2.968       2.814    
        2.665       2.489       2.284       2.087       1.868       1.647       1.397      0.9054      0.4002       0.000    
  45    10.00       9.901       9.832       9.743       9.652       9.571       9.389       9.170       8.921       8.649    
        8.410       8.004       7.631       7.422       7.206       6.958       6.708       6.509       6.352       6.242    
        6.165       6.088       6.009       5.923       5.828       5.723       5.607       5.488       5.382       5.236    
        5.045       4.834       4.601       4.337       4.097       3.787       3.429       3.175       3.021       2.867    
        2.673       2.470       2.290       2.112       1.920       1.683       1.260      0.7591      0.3845       0.000    
  46    10.00       9.919       9.844       9.751       9.650       9.498       9.307       9.126       8.898       8.632    
        8.289       7.916       7.616       7.355       7.134       6.890       6.641       6.486       6.367       6.265    
        6.194       6.123       6.030       5.927       5.833       5.740       5.644       5.539       5.433       5.299    
        5.121       4.901       4.642       4.343       4.009       3.676       3.414       3.240       3.069       2.892    
        2.668       2.457       2.278       2.135       1.929       1.597       1.130      0.7152      0.3634       0.000    
  47    10.00       9.937       9.868       9.770       9.597       9.413       9.250       9.095       8.892       8.560    
        8.189       7.843       7.554       7.335       7.099       6.828       6.613       6.475       6.381       6.298    
        6.221       6.139       6.047       5.946       5.852       5.771       5.687       5.582       5.460       5.327    
        5.171       4.975       4.641       4.246       3.931       3.685       3.457       3.308       3.151       2.904    
        2.638       2.416       2.248       2.132       1.874       1.478       1.050      0.6884      0.3534       0.000    
  48    10.00       9.944       9.872       9.726       9.551       9.399       9.224       9.068       8.851       8.501    
        8.098       7.784       7.550       7.289       7.014       6.771       6.609       6.475       6.384       6.323    
        6.246       6.147       6.046       5.958       5.883       5.815       5.733       5.618       5.474       5.319    
        5.157       4.934       4.589       4.264       3.988       3.744       3.530       3.361       3.159       2.863    
        2.582       2.403       2.263       2.045       1.700       1.345       1.002      0.6935      0.3731       0.000    
  49    10.00       9.942       9.838       9.707       9.564       9.387       9.212       9.036       8.768       8.398    
        8.050       7.756       7.474       7.227       7.015       6.786       6.578       6.456       6.396       6.336    
        6.265       6.153       6.041       5.968       5.906       5.852       5.761       5.622       5.459       5.311    
        5.141       4.868       4.576       4.359       4.106       3.819       3.561       3.357       3.123       2.808    
        2.580       2.423       2.215       1.886       1.579       1.290      0.9912      0.6935      0.3719       0.000    
  50    10.00       9.934       9.826       9.693       9.563       9.398       9.202       8.983       8.700       8.407    
        8.044       7.676       7.415       7.217       7.038       6.780       6.549       6.458       6.405       6.345    
        6.273       6.158       6.044       5.973       5.920       5.870       5.767       5.608       5.443       5.302    
        5.128       4.847       4.621       4.425       4.161       3.877       3.606       3.327       3.008       2.743    
        2.626       2.448       2.127       1.796       1.567       1.287       1.005      0.6793      0.3029       0.000    

 HEAD WILL BE SAVED ON UNIT   51 AT END OF TIME STEP  68, STRESS PERIOD    2

 DRAWDOWN WILL BE SAVED ON UNIT   52 AT END OF TIME STEP  68, STRESS PERIOD    2
1
  VOLUMETRIC BUDGET FOR ENTIRE MODEL AT END OF TIME STEP 68 IN STRESS PERIOD   2
  ------------------------------------------------------------------------------

     CUMULATIVE VOLUMES      L**3       RATES FOR THIS TIME STEP      L**3/T
     ------------------                 ------------------------

           IN:                                      IN:
           ---                                      ---
             STORAGE =       32532.6582               STORAGE =         427.8654
       CONSTANT HEAD =       42459.3242         CONSTANT HEAD =         656.5170
               WELLS =           0.0000                 WELLS =           0.0000

            TOTAL IN =       74991.9844              TOTAL IN =        1084.3824

          OUT:                                     OUT:
          ----                                     ----
             STORAGE =       9.4320E-03               STORAGE =           0.0000
       CONSTANT HEAD =       40991.9648         CONSTANT HEAD =         584.3825
               WELLS =       34000.0000                 WELLS =         500.0000

           TOTAL OUT =       74991.9766             TOTAL OUT =        1084.3826

            IN - OUT =       7.8125E-03              IN - OUT =      -1.2207E-04

 PERCENT DISCREPANCY =           0.00     PERCENT DISCREPANCY =           0.00






          TIME SUMMARY AT END OF TIME STEP  68 IN STRESS PERIOD    2
                    SECONDS     MINUTES      HOURS       DAYS        YEARS
                    -----------------------------------------------------------
   TIME STEP LENGTH  86400.      1440.0      24.000      1.0000     2.73785E-03
 STRESS PERIOD TIME 5.87520E+06  97920.      1632.0      68.000     0.18617    
         TOTAL TIME 5.96160E+06  99360.      1656.0      69.000     0.18891    
1
 
 SOLVING FOR HEAD 

 OUTPUT CONTROL FOR STRESS PERIOD    2   TIME STEP  69
    SAVE HEAD FOR ALL LAYERS
    SAVE DRAWDOWN FOR ALL LAYERS
    SAVE BUDGET
    PRINT HEAD FOR ALL LAYERS
    PRINT BUDGET
 UBDSV1 SAVING "         STORAGE" ON UNIT  53 AT TIME STEP 69, STRESS PERIOD   2
 UBDSV2 SAVING "   CONSTANT HEAD" ON UNIT  53 AT TIME STEP 69, STRESS PERIOD   2
 UBDSV1 SAVING "FLOW RIGHT FACE " ON UNIT  53 AT TIME STEP 69, STRESS PERIOD   2
 UBDSV1 SAVING "FLOW FRONT FACE " ON UNIT  53 AT TIME STEP 69, STRESS PERIOD   2
1
              HEAD IN LAYER   1 AT END OF TIME STEP  69 IN STRESS PERIOD    2
  ---------------------------------------------------------------------------

            1           2           3           4           5           6           7           8           9          10
           11          12          13          14          15          16          17          18          19          20
           21          22          23          24          25          26          27          28          29          30
           31          32          33          34          35          36          37          38          39          40
           41          42          43          44          45          46          47          48          49          50
 ........................................................................................................................
   1    10.00       9.955       9.892       9.819       9.749       9.669       9.593       9.518       9.424       9.331    
        9.260       9.190       9.118       9.048       8.936       8.800       8.649       8.530       8.469       8.398    
        8.313       8.246       8.181       8.105       8.005       7.809       7.587       7.432       7.282       7.140    
        6.957       6.662       6.286       5.868       5.435       4.974       4.518       4.139       3.644       3.104    
        2.662       2.239       1.770       1.378       1.136      0.9319      0.7700      0.6528      0.4382       0.000    
   2    10.00       9.954       9.897       9.824       9.752       9.681       9.606       9.507       9.404       9.328    
        9.266       9.206       9.146       9.060       8.931       8.789       8.647       8.530       8.467       8.387    
        8.302       8.252       8.199       8.120       7.993       7.800       7.599       7.440       7.288       7.150    
        6.945       6.637       6.241       5.765       5.303       4.857       4.462       4.096       3.591       3.070    
        2.626       2.152       1.724       1.417       1.190       1.014      0.8138      0.6353      0.3545       0.000    
   3    10.00       9.948       9.891       9.826       9.763       9.691       9.594       9.490       9.417       9.349    
        9.280       9.225       9.172       9.089       8.957       8.782       8.627       8.532       8.458       8.377    
        8.308       8.255       8.200       8.094       7.955       7.783       7.609       7.483       7.306       7.126    
        6.868       6.502       6.049       5.587       5.178       4.764       4.378       3.983       3.459       2.977    
        2.597       2.161       1.771       1.490       1.265       1.084      0.8465      0.5677      0.2574       0.000    
   4    10.00       9.948       9.891       9.828       9.757       9.674       9.574       9.495       9.431       9.361    
        9.300       9.255       9.196       9.101       8.973       8.786       8.625       8.535       8.453       8.380    
        8.306       8.240       8.170       8.059       7.921       7.767       7.608       7.453       7.295       7.091    
        6.765       6.279       5.797       5.446       5.108       4.682       4.218       3.755       3.337       2.974    
        2.620       2.217       1.851       1.599       1.347       1.116      0.8221      0.5105      0.2446       0.000    
   5    10.00       9.944       9.887       9.816       9.744       9.667       9.577       9.508       9.443       9.377    
        9.325       9.280       9.202       9.091       8.949       8.779       8.642       8.544       8.462       8.365    
        8.275       8.203       8.118       8.009       7.886       7.727       7.568       7.426       7.267       7.016    
        6.546       5.999       5.613       5.339       5.005       4.545       4.067       3.649       3.338       3.011    
        2.665       2.296       1.935       1.701       1.431       1.098      0.7482      0.4551      0.2289       0.000    
   6    10.00       9.937       9.869       9.809       9.744       9.659       9.584       9.525       9.456       9.394    
        9.344       9.290       9.191       9.066       8.942       8.799       8.661       8.548       8.439       8.325    
        8.235       8.150       8.076       7.978       7.820       7.663       7.536       7.390       7.169       6.787    
        6.265       5.768       5.447       5.213       4.910       4.455       3.982       3.633       3.371       3.077    
        2.764       2.440       2.072       1.759       1.401       1.035      0.6605      0.3925      0.2161       0.000    
   7    10.00       9.924       9.858       9.803       9.735       9.665       9.597       9.541       9.478       9.417    
        9.356       9.273       9.165       9.047       8.929       8.817       8.672       8.517       8.391       8.279    
        8.184       8.103       8.038       7.914       7.752       7.621       7.491       7.293       6.932       6.440    
        5.944       5.544       5.328       5.120       4.769       4.342       4.026       3.690       3.408       3.218    
        2.922       2.577       2.146       1.699       1.299      0.8985      0.5687      0.3952      0.2035       0.000    
   8    10.00       9.923       9.864       9.801       9.733       9.670       9.611       9.555       9.496       9.438    
        9.357       9.251       9.144       9.033       8.923       8.797       8.614       8.451       8.347       8.240    
        8.134       8.064       7.967       7.833       7.691       7.554       7.333       7.023       6.565       6.135    
        5.766       5.460       5.265       5.027       4.651       4.301       4.016       3.770       3.554       3.337    
        3.050       2.617       2.088       1.611       1.194      0.8406      0.6017      0.3869      0.1855       0.000    
   9    10.00       9.936       9.863       9.795       9.744       9.692       9.632       9.572       9.507       9.445    
        9.350       9.230       9.113       9.001       8.884       8.734       8.557       8.406       8.295       8.185    
        8.091       8.000       7.869       7.740       7.608       7.436       7.115       6.699       6.270       5.957    
        5.655       5.406       5.191       4.895       4.548       4.257       4.042       3.863       3.670       3.433    
        3.090       2.618       2.079       1.607       1.202      0.8587      0.6068      0.3902      0.1995       0.000    
  10    10.00       9.933       9.857       9.800       9.753       9.703       9.649       9.598       9.522       9.429    
        9.314       9.188       9.076       8.971       8.850       8.665       8.478       8.347       8.245       8.142    
        8.053       7.927       7.781       7.636       7.481       7.229       6.816       6.385       6.022       5.771    
        5.578       5.369       5.109       4.809       4.489       4.247       4.086       3.931       3.724       3.452    
        3.059       2.571       2.080       1.677       1.300      0.9442      0.6255      0.4142      0.2227       0.000    
  11    10.00       9.919       9.857       9.810       9.764       9.721       9.671       9.599       9.495       9.390    
        9.275       9.151       9.048       8.921       8.755       8.578       8.424       8.308       8.215       8.110    
        7.977       7.815       7.617       7.450       7.189       6.835       6.484       6.169       5.867       5.683    
        5.535       5.266       4.984       4.737       4.494       4.311       4.145       3.948       3.692       3.363    
        2.994       2.618       2.149       1.754       1.396       1.044      0.7024      0.4067      0.1706       0.000    
  12    10.00       9.921       9.864       9.815       9.775       9.730       9.673       9.571       9.451       9.350    
        9.243       9.113       8.987       8.835       8.690       8.527       8.378       8.278       8.174       8.028    
        7.805       7.563       7.329       7.095       6.745       6.479       6.282       5.974       5.726       5.590    
        5.422       5.172       4.941       4.714       4.542       4.368       4.160       3.920       3.610       3.281    
        2.971       2.632       2.181       1.793       1.457       1.089      0.7383      0.3833      0.1272       0.000    
  13    10.00       9.936       9.882       9.830       9.783       9.729       9.638       9.520       9.407       9.304    
        9.183       9.056       8.924       8.766       8.606       8.452       8.344       8.219       8.081       7.791    
        7.453       7.197       6.938       6.626       6.358       6.232       6.011       5.740       5.607       5.482    
        5.285       5.072       4.890       4.724       4.578       4.416       4.170       3.847       3.551       3.244    
        2.949       2.600       2.116       1.757       1.469       1.079      0.6777      0.3304      0.1012       0.000    
  14    10.00       9.951       9.904       9.849       9.783       9.695       9.576       9.458       9.356       9.242    
        9.117       8.999       8.849       8.683       8.540       8.407       8.242       8.078       7.801       7.370    
        7.045       6.798       6.454       6.211       6.088       5.974       5.756       5.590       5.461       5.331    
        5.161       5.011       4.884       4.743       4.586       4.428       4.150       3.801       3.497       3.182    
        2.882       2.449       1.990       1.709       1.381       1.031      0.6772      0.3054      8.6981E-02   0.000    
  15    10.00       9.960       9.912       9.850       9.771       9.642       9.498       9.394       9.298       9.185    
        9.088       8.965       8.773       8.583       8.451       8.243       8.032       7.861       7.436       6.965    
        6.674       6.344       6.055       5.965       5.902       5.758       5.573       5.418       5.319       5.220    
        5.093       4.984       4.882       4.758       4.605       4.414       4.090       3.705       3.388       3.103    
        2.782       2.348       1.989       1.638       1.250      0.9420      0.6042      0.2795      9.4562E-02   0.000    
  16    10.00       9.967       9.915       9.838       9.723       9.569       9.440       9.357       9.272       9.159    
        9.041       8.859       8.618       8.435       8.245       8.004       7.864       7.515       6.919       6.509    
        6.254       5.973       5.872       5.821       5.702       5.517       5.373       5.298       5.252       5.167    
        5.061       4.964       4.877       4.752       4.568       4.309       3.941       3.613       3.365       3.068    
        2.698       2.273       1.887       1.507       1.174      0.8331      0.5412      0.2818      0.1006       0.000    
  17    10.00       9.962       9.899       9.797       9.665       9.506       9.392       9.319       9.218       9.097    
        8.885       8.631       8.429       8.242       7.996       7.756       7.461       6.905       6.412       6.158    
        5.959       5.812       5.742       5.620       5.436       5.306       5.264       5.243       5.197       5.113    
        5.020       4.936       4.844       4.718       4.453       4.116       3.834       3.624       3.387       3.030    
        2.564       2.150       1.793       1.437       1.051      0.6942      0.4608      0.2556      0.1065       0.000    
  18    10.00       9.947       9.865       9.746       9.573       9.439       9.358       9.250       9.126       8.945    
        8.675       8.463       8.274       7.988       7.668       7.338       6.924       6.443       6.143       5.950    
        5.800       5.673       5.559       5.394       5.269       5.229       5.213       5.190       5.131       5.050    
        4.973       4.888       4.772       4.577       4.306       4.037       3.820       3.650       3.353       2.915    
        2.468       2.036       1.678       1.344      0.9744      0.6396      0.3892      0.2134      9.9633E-02   0.000    
  19    10.00       9.928       9.834       9.661       9.489       9.410       9.308       9.167       9.017       8.809    
        8.570       8.361       8.057       7.650       7.316       6.993       6.551       6.162       5.974       5.849    
        5.691       5.530       5.400       5.263       5.196       5.178       5.155       5.111       5.040       4.972    
        4.897       4.804       4.652       4.456       4.239       4.015       3.832       3.614       3.192       2.761    
        2.409       1.969       1.582       1.257      0.8944      0.5760      0.3500      0.2025      0.1014       0.000    
  20    10.00       9.907       9.763       9.583       9.456       9.366       9.252       9.101       8.922       8.729    
        8.480       8.167       7.755       7.382       7.088       6.703       6.303       6.106       5.947       5.776    
        5.605       5.436       5.278       5.177       5.132       5.095       5.043       4.998       4.929       4.867    
        4.796       4.703       4.554       4.385       4.194       4.006       3.814       3.475       3.035       2.671    
        2.281       1.855       1.512       1.187      0.8500      0.5174      0.3040      0.2042      0.1032       0.000    
  21    10.00       9.853       9.705       9.557       9.424       9.323       9.198       9.006       8.823       8.636    
        8.311       7.917       7.532       7.226       6.911       6.542       6.258       6.085       5.903       5.717    
        5.508       5.316       5.177       5.074       4.997       4.929       4.887       4.846       4.775       4.728    
        4.680       4.584       4.460       4.317       4.150       3.972       3.701       3.361       2.982       2.552    
        2.160       1.761       1.464       1.167      0.7388      0.4371      0.3115      0.2274      0.1093       0.000    
  22    10.00       9.832       9.657       9.513       9.400       9.278       9.094       8.902       8.740       8.493    
        8.150       7.739       7.407       7.153       6.808       6.468       6.229       6.051       5.871       5.646    
        5.406       5.211       5.031       4.871       4.768       4.718       4.686       4.630       4.607       4.580    
        4.544       4.472       4.381       4.252       4.099       3.928       3.647       3.311       2.866       2.443    
        2.105       1.743       1.415      0.9735      0.6088      0.4383      0.3296      0.2193      8.7120E-02   0.000    
  23    10.00       9.794       9.623       9.503       9.379       9.197       8.991       8.840       8.635       8.378    
        8.029       7.664       7.407       7.087       6.715       6.419       6.217       6.054       5.850       5.581    
        5.324       5.095       4.856       4.571       4.318       4.269       4.343       4.378       4.426       4.442    
        4.428       4.382       4.304       4.202       4.057       3.879       3.620       3.202       2.735       2.388    
        2.065       1.653       1.180      0.7964      0.5942      0.4499      0.3293      0.2090      9.7334E-02   0.000    
  24    10.00       9.765       9.641       9.503       9.328       9.127       8.965       8.801       8.599       8.303    
        7.983       7.699       7.417       7.031       6.639       6.405       6.237       6.068       5.822       5.550    
        5.295       5.032       4.666       4.010       3.024       3.355       3.806       4.091       4.243       4.306    
        4.324       4.297       4.245       4.141       4.001       3.822       3.500       3.061       2.666       2.297    
        1.904       1.467       1.048      0.7607      0.5917      0.4477      0.3219      0.2440      0.1343       0.000    
  25    10.00       9.795       9.664       9.497       9.314       9.134       8.968       8.812       8.565       8.271    
        8.002       7.729       7.384       6.962       6.657       6.444       6.257       6.058       5.828       5.576    
        5.301       5.039       4.370       2.975     -0.1898       2.377       3.347       3.834       4.093       4.211    
        4.245       4.235       4.182       4.062       3.915       3.696       3.362       2.941       2.584       2.185    
        1.731       1.320      0.9771      0.7536      0.6160      0.4817      0.3521      0.2595      0.1694       0.000    
  26    10.00       9.824       9.701       9.522       9.332       9.175       9.003       8.807       8.555       8.326    
        8.094       7.731       7.297       6.937       6.715       6.523       6.301       6.042       5.799       5.582    
        5.370       5.082       4.465       3.452       2.387       2.907       3.469       3.823       4.042       4.169    
        4.201       4.188       4.118       4.000       3.858       3.621       3.185       2.795       2.493       2.005    
        1.512       1.170      0.9685      0.8180      0.6715      0.5226      0.3876      0.2839      0.1696       0.000    
  27    10.00       9.863       9.713       9.561       9.392       9.210       9.039       8.850       8.625       8.406    
        8.096       7.670       7.294       7.001       6.805       6.589       6.298       6.014       5.816       5.643    
        5.466       5.168       4.705       4.146       3.550       3.568       3.766       3.952       4.093       4.168    
        4.183       4.160       4.091       3.971       3.779       3.407       2.994       2.686       2.219       1.736    
        1.381       1.157       1.010      0.8821      0.7472      0.5753      0.4144      0.3102      0.2085       0.000    
  28    10.00       9.875       9.749       9.603       9.450       9.279       9.102       8.912       8.700       8.448    
        8.071       7.684       7.358       7.077       6.874       6.656       6.407       6.127       5.864       5.692    
        5.533       5.320       5.011       4.592       4.214       4.045       4.056       4.140       4.176       4.200    
        4.188       4.150       4.067       3.894       3.608       3.217       2.861       2.437       1.973       1.651    
        1.390       1.205       1.059      0.9323      0.7935      0.6291      0.4697      0.3530      0.2152       0.000    
  29    10.00       9.881       9.761       9.653       9.505       9.349       9.180       8.989       8.765       8.429    
        8.059       7.721       7.412       7.180       6.947       6.711       6.483       6.260       6.004       5.781    
        5.610       5.430       5.217       4.959       4.616       4.432       4.361       4.330       4.311       4.268    
        4.211       4.130       4.021       3.785       3.437       3.079       2.703       2.272       1.915       1.679    
        1.465       1.261       1.101      0.9779      0.8426      0.6740      0.5097      0.3733      0.2176       0.000    
  30    10.00       9.892       9.793       9.697       9.570       9.426       9.276       9.064       8.786       8.445    
        8.064       7.722       7.464       7.235       7.006       6.777       6.587       6.395       6.164       5.925    
        5.720       5.554       5.369       5.183       4.963       4.763       4.680       4.551       4.472       4.360    
        4.232       4.093       3.928       3.675       3.383       3.038       2.647       2.246       1.982       1.763    
        1.520       1.319       1.165       1.018      0.8655      0.7161      0.5436      0.3893      0.2353       0.000    
  31    10.00       9.911       9.825       9.736       9.644       9.531       9.367       9.120       8.800       8.446    
        8.079       7.761       7.516       7.283       7.079       6.868       6.668       6.521       6.298       6.069    
        5.872       5.699       5.536       5.365       5.224       5.064       4.907       4.759       4.602       4.439    
        4.244       4.051       3.875       3.665       3.370       3.007       2.631       2.297       2.080       1.884    
        1.631       1.399       1.219       1.063      0.9111      0.7526      0.5794      0.4164      0.2292       0.000    
  32    10.00       9.925       9.859       9.782       9.692       9.591       9.430       9.151       8.853       8.531    
        8.144       7.814       7.571       7.352       7.147       6.970       6.792       6.607       6.427       6.208    
        6.001       5.813       5.653       5.494       5.364       5.252       5.078       4.902       4.695       4.473    
        4.261       4.064       3.868       3.662       3.380       3.049       2.731       2.436       2.205       1.984    
        1.749       1.506       1.313       1.130      0.9553      0.8114      0.6338      0.4178      0.2076       0.000    
  33    10.00       9.935       9.882       9.820       9.733       9.619       9.416       9.147       8.897       8.601    
        8.227       7.901       7.650       7.413       7.223       7.070       6.914       6.729       6.529       6.329    
        6.113       5.911       5.724       5.569       5.463       5.351       5.181       4.964       4.750       4.537    
        4.325       4.138       3.936       3.671       3.402       3.100       2.827       2.589       2.348       2.106    
        1.887       1.655       1.442       1.250       1.055      0.8838      0.6839      0.4284      0.2018       0.000    
  34    10.00       9.942       9.906       9.852       9.747       9.590       9.395       9.197       8.942       8.622    
        8.294       7.978       7.711       7.475       7.304       7.183       7.017       6.831       6.615       6.426    
        6.229       5.992       5.805       5.661       5.553       5.422       5.226       5.031       4.808       4.575    
        4.396       4.224       4.042       3.779       3.496       3.218       2.965       2.751       2.502       2.257    
        2.045       1.831       1.605       1.407       1.200      0.9978      0.7422      0.4770      0.2515       0.000    
  35    10.00       9.952       9.912       9.844       9.714       9.550       9.408       9.241       9.008       8.665    
        8.318       8.027       7.760       7.555       7.407       7.271       7.101       6.897       6.689       6.480    
        6.297       6.088       5.897       5.761       5.645       5.515       5.304       5.067       4.831       4.610    
        4.473       4.313       4.114       3.913       3.668       3.368       3.110       2.934       2.679       2.400    
        2.200       1.985       1.770       1.575       1.342       1.116      0.8580      0.5728      0.2863       0.000    
  36    10.00       9.949       9.893       9.817       9.689       9.533       9.406       9.252       9.019       8.702    
        8.342       8.029       7.828       7.663       7.523       7.358       7.154       6.957       6.738       6.483    
        6.290       6.125       5.960       5.842       5.727       5.572       5.351       5.104       4.863       4.656    
        4.518       4.382       4.195       4.001       3.790       3.517       3.254       3.058       2.832       2.531    
        2.304       2.088       1.867       1.706       1.482       1.230      0.9715      0.6732      0.3424       0.000    
  37    10.00       9.935       9.872       9.790       9.661       9.520       9.378       9.229       9.018       8.678    
        8.316       8.057       7.931       7.774       7.592       7.428       7.199       6.963       6.700       6.448    
        6.294       6.162       6.008       5.886       5.754       5.572       5.366       5.113       4.896       4.733    
        4.585       4.433       4.239       4.068       3.847       3.585       3.376       3.184       2.932       2.632    
        2.361       2.148       1.972       1.791       1.578       1.343       1.095      0.7605      0.4121       0.000    
  38    10.00       9.928       9.848       9.761       9.642       9.505       9.349       9.194       8.970       8.657    
        8.380       8.170       8.009       7.868       7.668       7.420       7.165       6.886       6.606       6.440    
        6.319       6.162       6.019       5.912       5.772       5.570       5.323       5.094       4.960       4.825    
        4.661       4.487       4.298       4.122       3.904       3.661       3.471       3.276       2.976       2.661    
        2.425       2.227       2.047       1.866       1.676       1.449       1.193      0.8705      0.4518       0.000    
  39    10.00       9.909       9.828       9.742       9.626       9.473       9.306       9.143       8.941       8.688    
        8.471       8.315       8.135       7.938       7.654       7.338       7.026       6.731       6.559       6.448    
        6.291       6.126       6.021       5.922       5.792       5.561       5.310       5.149       5.028       4.887    
        4.713       4.544       4.352       4.161       3.975       3.771       3.552       3.324       3.014       2.703    
        2.454       2.256       2.115       1.970       1.764       1.532       1.273      0.9228      0.4520       0.000    
  40    10.00       9.894       9.816       9.730       9.613       9.454       9.282       9.118       8.946       8.736    
        8.558       8.424       8.206       7.898       7.543       7.191       6.876       6.671       6.553       6.425    
        6.254       6.110       6.014       5.902       5.750       5.565       5.390       5.225       5.080       4.949    
        4.788       4.598       4.400       4.219       4.046       3.838       3.602       3.372       3.035       2.694    
        2.468       2.303       2.156       2.031       1.822       1.565       1.327      0.9590      0.4736       0.000    
  41    10.00       9.902       9.811       9.716       9.587       9.443       9.293       9.146       8.981       8.795    
        8.626       8.466       8.178       7.790       7.399       7.080       6.829       6.654       6.534       6.390    
        6.218       6.094       5.991       5.871       5.736       5.599       5.468       5.309       5.136       4.985    
        4.839       4.656       4.455       4.289       4.106       3.903       3.661       3.340       2.966       2.704    
        2.520       2.347       2.211       2.054       1.833       1.578       1.368       1.018      0.5213       0.000    
  42    10.00       9.906       9.804       9.717       9.605       9.470       9.321       9.158       9.011       8.868    
        8.669       8.387       8.028       7.630       7.277       7.031       6.814       6.648       6.510       6.339    
        6.180       6.066       5.962       5.874       5.757       5.654       5.532       5.352       5.167       5.031    
        4.900       4.702       4.486       4.330       4.173       3.945       3.634       3.249       2.916       2.716    
        2.569       2.422       2.254       2.050       1.821       1.615       1.402       1.060      0.5455       0.000    
  43    10.00       9.907       9.814       9.725       9.636       9.517       9.368       9.208       9.048       8.847    
        8.565       8.243       7.876       7.492       7.218       7.011       6.806       6.634       6.469       6.300    
        6.151       6.044       5.965       5.896       5.793       5.680       5.562       5.386       5.221       5.107    
        4.942       4.724       4.520       4.366       4.186       3.907       3.542       3.170       2.938       2.779    
        2.624       2.465       2.260       2.040       1.830       1.631       1.440       1.057      0.4762       0.000    
  44    10.00       9.901       9.817       9.739       9.642       9.551       9.425       9.231       9.019       8.742    
        8.458       8.118       7.718       7.438       7.225       6.997       6.775       6.580       6.401       6.250    
        6.143       6.057       5.982       5.910       5.821       5.707       5.568       5.429       5.300       5.156    
        4.998       4.801       4.570       4.352       4.141       3.856       3.475       3.153       2.967       2.813    
        2.664       2.488       2.283       2.087       1.867       1.646       1.397      0.9051      0.4000       0.000    
  45    10.00       9.901       9.832       9.743       9.652       9.570       9.388       9.169       8.919       8.648    
        8.408       8.002       7.629       7.420       7.204       6.956       6.705       6.507       6.349       6.240    
        6.162       6.086       6.007       5.920       5.825       5.721       5.604       5.486       5.380       5.234    
        5.043       4.832       4.599       4.335       4.095       3.786       3.427       3.173       3.020       2.866    
        2.672       2.469       2.289       2.111       1.920       1.682       1.260      0.7589      0.3844       0.000    
  46    10.00       9.919       9.844       9.750       9.649       9.498       9.306       9.125       8.897       8.631    
        8.287       7.914       7.614       7.353       7.132       6.888       6.638       6.483       6.364       6.263    
        6.191       6.120       6.027       5.924       5.830       5.737       5.642       5.536       5.431       5.296    
        5.119       4.899       4.640       4.342       4.007       3.674       3.413       3.239       3.068       2.891    
        2.667       2.456       2.277       2.134       1.928       1.597       1.130      0.7150      0.3633       0.000    
  47    10.00       9.937       9.868       9.770       9.596       9.413       9.249       9.094       8.891       8.558    
        8.188       7.841       7.553       7.333       7.097       6.826       6.611       6.473       6.379       6.295    
        6.219       6.137       6.045       5.943       5.849       5.769       5.684       5.579       5.458       5.325    
        5.168       4.973       4.640       4.244       3.930       3.684       3.456       3.307       3.150       2.903    
        2.637       2.415       2.248       2.131       1.873       1.477       1.049      0.6882      0.3533       0.000    
  48    10.00       9.944       9.872       9.725       9.550       9.398       9.223       9.067       8.850       8.500    
        8.097       7.782       7.549       7.287       7.012       6.769       6.607       6.472       6.382       6.320    
        6.244       6.145       6.044       5.956       5.881       5.812       5.731       5.615       5.472       5.317    
        5.155       4.932       4.587       4.263       3.987       3.742       3.529       3.360       3.158       2.863    
        2.581       2.402       2.263       2.044       1.699       1.345       1.002      0.6933      0.3730       0.000    
  49    10.00       9.941       9.837       9.707       9.564       9.387       9.211       9.035       8.767       8.397    
        8.049       7.755       7.473       7.225       7.013       6.784       6.576       6.453       6.394       6.334    
        6.262       6.151       6.039       5.966       5.904       5.850       5.759       5.619       5.457       5.309    
        5.139       4.867       4.575       4.357       4.104       3.818       3.559       3.355       3.122       2.807    
        2.579       2.423       2.215       1.885       1.579       1.289      0.9910      0.6933      0.3718       0.000    
  50    10.00       9.934       9.826       9.692       9.563       9.397       9.201       8.982       8.699       8.406    
        8.043       7.674       7.413       7.215       7.036       6.778       6.547       6.456       6.402       6.342    
        6.271       6.156       6.041       5.970       5.918       5.868       5.765       5.605       5.441       5.300    
        5.126       4.845       4.619       4.424       4.160       3.875       3.605       3.326       3.007       2.742    
        2.625       2.447       2.126       1.796       1.567       1.287       1.005      0.6791      0.3028       0.000    

 HEAD WILL BE SAVED ON UNIT   51 AT END OF TIME STEP  69, STRESS PERIOD    2

 DRAWDOWN WILL BE SAVED ON UNIT   52 AT END OF TIME STEP  69, STRESS PERIOD    2
1
  VOLUMETRIC BUDGET FOR ENTIRE MODEL AT END OF TIME STEP 69 IN STRESS PERIOD   2
  ------------------------------------------------------------------------------

     CUMULATIVE VOLUMES      L**3       RATES FOR THIS TIME STEP      L**3/T
     ------------------                 ------------------------

           IN:                                      IN:
           ---                                      ---
             STORAGE =       32958.4141               STORAGE =         425.7550
       CONSTANT HEAD =       43117.4258         CONSTANT HEAD =         658.1018
               WELLS =           0.0000                 WELLS =           0.0000

            TOTAL IN =       76075.8438              TOTAL IN =        1083.8568

          OUT:                                     OUT:
          ----                                     ----
             STORAGE =       9.4320E-03               STORAGE =           0.0000
       CONSTANT HEAD =       41575.8203         CONSTANT HEAD =         583.8570
               WELLS =       34500.0000                 WELLS =         500.0000

           TOTAL OUT =       76075.8281             TOTAL OUT =        1083.8569

            IN - OUT =       1.5625E-02              IN - OUT =      -1.2207E-04

 PERCENT DISCREPANCY =           0.00     PERCENT DISCREPANCY =           0.00






          TIME SUMMARY AT END OF TIME STEP  69 IN STRESS PERIOD    2
                    SECONDS     MINUTES      HOURS       DAYS        YEARS
                    -----------------------------------------------------------
   TIME STEP LENGTH  86400.      1440.0      24.000      1.0000     2.73785E-03
 STRESS PERIOD TIME 5.96160E+06  99360.      1656.0      69.000     0.18891    
         TOTAL TIME 6.04800E+06 1.00800E+05  1680.0      70.000     0.19165    
1
 
 SOLVING FOR HEAD 

 OUTPUT CONTROL FOR STRESS PERIOD    2   TIME STEP  70
    SAVE HEAD FOR ALL LAYERS
    SAVE DRAWDOWN FOR ALL LAYERS
    SAVE BUDGET
    PRINT HEAD FOR ALL LAYERS
    PRINT BUDGET
 UBDSV1 SAVING "         STORAGE" ON UNIT  53 AT TIME STEP 70, STRESS PERIOD   2
 UBDSV2 SAVING "   CONSTANT HEAD" ON UNIT  53 AT TIME STEP 70, STRESS PERIOD   2
 UBDSV1 SAVING "FLOW RIGHT FACE " ON UNIT  53 AT TIME STEP 70, STRESS PERIOD   2
 UBDSV1 SAVING "FLOW FRONT FACE " ON UNIT  53 AT TIME STEP 70, STRESS PERIOD   2
1
              HEAD IN LAYER   1 AT END OF TIME STEP  70 IN STRESS PERIOD    2
  ---------------------------------------------------------------------------

            1           2           3           4           5           6           7           8           9          10
           11          12          13          14          15          16          17          18          19          20
           21          22          23          24          25          26          27          28          29          30
           31          32          33          34          35          36          37          38          39          40
           41          42          43          44          45          46          47          48          49          50
 ........................................................................................................................
   1    10.00       9.955       9.891       9.819       9.748       9.668       9.592       9.517       9.422       9.330    
        9.258       9.188       9.116       9.046       8.933       8.798       8.646       8.527       8.466       8.394    
        8.310       8.243       8.177       8.101       8.001       7.805       7.583       7.428       7.278       7.136    
        6.952       6.658       6.282       5.864       5.431       4.971       4.515       4.136       3.641       3.102    
        2.660       2.237       1.769       1.377       1.135      0.9310      0.7693      0.6522      0.4378       0.000    
   2    10.00       9.954       9.896       9.823       9.751       9.680       9.605       9.506       9.403       9.327    
        9.265       9.204       9.144       9.058       8.929       8.786       8.644       8.526       8.463       8.384    
        8.299       8.248       8.195       8.116       7.989       7.796       7.595       7.436       7.283       7.146    
        6.941       6.632       6.237       5.761       5.299       4.854       4.459       4.092       3.588       3.067    
        2.624       2.150       1.723       1.416       1.189       1.013      0.8130      0.6348      0.3541       0.000    
   3    10.00       9.948       9.890       9.825       9.762       9.690       9.593       9.489       9.416       9.347    
        9.278       9.223       9.170       9.087       8.954       8.779       8.623       8.528       8.454       8.373    
        8.304       8.251       8.196       8.090       7.951       7.779       7.604       7.479       7.302       7.122    
        6.864       6.498       6.045       5.583       5.174       4.760       4.374       3.980       3.456       2.974    
        2.595       2.159       1.769       1.489       1.264       1.083      0.8457      0.5672      0.2572       0.000    
   4    10.00       9.948       9.891       9.828       9.756       9.673       9.573       9.493       9.430       9.360    
        9.299       9.253       9.194       9.099       8.970       8.783       8.622       8.532       8.449       8.377    
        8.302       8.236       8.166       8.055       7.917       7.762       7.603       7.448       7.290       7.086    
        6.761       6.274       5.792       5.442       5.104       4.678       4.214       3.752       3.334       2.971    
        2.618       2.215       1.850       1.597       1.345       1.115      0.8214      0.5100      0.2443       0.000    
   5    10.00       9.944       9.887       9.816       9.743       9.666       9.576       9.507       9.442       9.376    
        9.323       9.278       9.200       9.089       8.947       8.776       8.639       8.541       8.459       8.361    
        8.271       8.199       8.114       8.005       7.882       7.723       7.564       7.421       7.263       7.012    
        6.541       5.994       5.608       5.335       5.001       4.541       4.063       3.645       3.334       3.008    
        2.663       2.294       1.933       1.699       1.429       1.097      0.7475      0.4546      0.2287       0.000    
   6    10.00       9.936       9.869       9.809       9.743       9.658       9.582       9.524       9.455       9.393    
        9.342       9.288       9.189       9.064       8.939       8.797       8.658       8.545       8.435       8.321    
        8.231       8.146       8.072       7.974       7.816       7.659       7.531       7.386       7.164       6.782    
        6.260       5.763       5.442       5.207       4.905       4.451       3.978       3.629       3.367       3.074    
        2.761       2.438       2.070       1.757       1.400       1.034      0.6599      0.3922      0.2159       0.000    
   7    10.00       9.924       9.858       9.803       9.734       9.664       9.596       9.540       9.477       9.416    
        9.354       9.271       9.163       9.045       8.926       8.814       8.668       8.513       8.387       8.275    
        8.180       8.098       8.034       7.910       7.748       7.616       7.486       7.288       6.927       6.435    
        5.939       5.538       5.323       5.114       4.764       4.337       4.021       3.686       3.404       3.214    
        2.919       2.574       2.144       1.697       1.297      0.8976      0.5681      0.3948      0.2033       0.000    
   8    10.00       9.923       9.864       9.801       9.732       9.670       9.610       9.553       9.495       9.436    
        9.355       9.249       9.142       9.030       8.921       8.794       8.610       8.447       8.343       8.236    
        8.130       8.060       7.963       7.828       7.687       7.548       7.328       7.018       6.559       6.128    
        5.759       5.454       5.259       5.021       4.646       4.296       4.011       3.765       3.549       3.333    
        3.046       2.614       2.085       1.609       1.193      0.8397      0.6010      0.3865      0.1853       0.000    
   9    10.00       9.935       9.863       9.794       9.743       9.691       9.631       9.571       9.506       9.443    
        9.348       9.228       9.111       8.999       8.882       8.731       8.553       8.403       8.291       8.180    
        8.086       7.996       7.864       7.735       7.603       7.431       7.109       6.692       6.264       5.950    
        5.648       5.399       5.185       4.888       4.543       4.251       4.036       3.858       3.665       3.429    
        3.086       2.614       2.077       1.605       1.201      0.8577      0.6061      0.3897      0.1993       0.000    
  10    10.00       9.933       9.856       9.800       9.753       9.702       9.648       9.596       9.521       9.427    
        9.312       9.185       9.073       8.968       8.847       8.661       8.474       8.343       8.240       8.137    
        8.049       7.922       7.776       7.630       7.475       7.223       6.809       6.377       6.015       5.763    
        5.571       5.362       5.102       4.802       4.483       4.241       4.081       3.926       3.719       3.447    
        3.055       2.567       2.077       1.675       1.298      0.9431      0.6248      0.4138      0.2225       0.000    
  11    10.00       9.918       9.856       9.810       9.763       9.720       9.671       9.598       9.494       9.389    
        9.273       9.149       9.045       8.918       8.751       8.574       8.420       8.304       8.210       8.105    
        7.972       7.810       7.611       7.444       7.182       6.828       6.476       6.161       5.859       5.675    
        5.527       5.259       4.977       4.730       4.487       4.305       4.139       3.942       3.687       3.358    
        2.990       2.615       2.146       1.752       1.394       1.042      0.7016      0.4063      0.1704       0.000    
  12    10.00       9.921       9.864       9.814       9.775       9.729       9.673       9.570       9.450       9.349    
        9.241       9.111       8.984       8.832       8.686       8.523       8.374       8.274       8.169       8.023    
        7.799       7.557       7.322       7.087       6.737       6.470       6.274       5.965       5.718       5.582    
        5.414       5.164       4.933       4.706       4.535       4.361       4.154       3.914       3.605       3.277    
        2.966       2.629       2.178       1.791       1.455       1.088      0.7374      0.3829      0.1271       0.000    
  13    10.00       9.936       9.882       9.829       9.782       9.728       9.637       9.519       9.405       9.302    
        9.181       9.053       8.921       8.763       8.601       8.448       8.339       8.214       8.075       7.785    
        7.446       7.189       6.930       6.617       6.349       6.223       6.001       5.731       5.598       5.473    
        5.276       5.063       4.882       4.716       4.570       4.409       4.163       3.841       3.546       3.239    
        2.945       2.596       2.113       1.755       1.467       1.077      0.6769      0.3300      0.1010       0.000    
  14    10.00       9.950       9.904       9.848       9.782       9.694       9.575       9.456       9.354       9.240    
        9.114       8.995       8.845       8.679       8.535       8.402       8.237       8.073       7.795       7.362    
        7.037       6.789       6.445       6.201       6.078       5.965       5.746       5.580       5.451       5.321    
        5.152       5.001       4.875       4.734       4.578       4.420       4.143       3.795       3.491       3.177    
        2.877       2.445       1.987       1.706       1.379       1.029      0.6763      0.3050      8.6863E-02   0.000    
  15    10.00       9.960       9.912       9.850       9.771       9.641       9.496       9.392       9.296       9.183    
        9.085       8.962       8.769       8.579       8.446       8.237       8.026       7.854       7.429       6.957    
        6.665       6.334       6.044       5.955       5.892       5.748       5.562       5.408       5.309       5.210    
        5.083       4.975       4.872       4.749       4.597       4.406       4.083       3.699       3.382       3.097    
        2.778       2.344       1.986       1.636       1.248      0.9406      0.6033      0.2791      9.4427E-02   0.000    
  16    10.00       9.967       9.915       9.838       9.722       9.567       9.438       9.355       9.270       9.156    
        9.037       8.855       8.614       8.430       8.239       7.998       7.857       7.507       6.910       6.499    
        6.244       5.963       5.861       5.810       5.691       5.506       5.362       5.287       5.241       5.157    
        5.051       4.954       4.867       4.743       4.560       4.301       3.933       3.606       3.359       3.063    
        2.693       2.269       1.884       1.504       1.172      0.8318      0.5404      0.2814      0.1005       0.000    
  17    10.00       9.962       9.899       9.796       9.664       9.504       9.390       9.317       9.215       9.094    
        8.881       8.626       8.424       8.236       7.989       7.749       7.453       6.895       6.401       6.147    
        5.948       5.801       5.731       5.609       5.425       5.294       5.253       5.231       5.186       5.102    
        5.010       4.925       4.834       4.708       4.444       4.108       3.826       3.617       3.381       3.025    
        2.560       2.146       1.790       1.435       1.050      0.6931      0.4601      0.2552      0.1063       0.000    
  18    10.00       9.946       9.865       9.745       9.572       9.436       9.356       9.247       9.123       8.941    
        8.670       8.458       8.268       7.981       7.660       7.329       6.914       6.432       6.132       5.939    
        5.789       5.662       5.548       5.383       5.257       5.218       5.201       5.179       5.120       5.039    
        4.962       4.878       4.762       4.567       4.296       4.029       3.812       3.642       3.346       2.909    
        2.463       2.033       1.675       1.342      0.9728      0.6386      0.3886      0.2131      9.9475E-02   0.000    
  19    10.00       9.928       9.834       9.660       9.487       9.407       9.305       9.164       9.013       8.805    
        8.565       8.354       8.050       7.641       7.307       6.983       6.541       6.151       5.962       5.837    
        5.679       5.518       5.389       5.251       5.184       5.166       5.144       5.100       5.029       4.960    
        4.885       4.793       4.642       4.445       4.229       4.006       3.823       3.607       3.185       2.756    
        2.404       1.965       1.579       1.255      0.8929      0.5750      0.3495      0.2021      0.1012       0.000    
  20    10.00       9.907       9.762       9.581       9.454       9.363       9.249       9.098       8.917       8.724    
        8.474       8.160       7.747       7.373       7.078       6.692       6.292       6.094       5.935       5.764    
        5.593       5.424       5.265       5.165       5.119       5.083       5.031       4.986       4.917       4.856    
        4.784       4.692       4.542       4.375       4.184       3.997       3.805       3.467       3.028       2.666    
        2.277       1.851       1.509       1.185      0.8485      0.5165      0.3035      0.2039      0.1030       0.000    
  21    10.00       9.853       9.704       9.555       9.422       9.320       9.195       9.002       8.818       8.631    
        8.304       7.909       7.523       7.216       6.900       6.531       6.246       6.074       5.892       5.705    
        5.496       5.304       5.165       5.062       4.985       4.917       4.875       4.834       4.763       4.716    
        4.667       4.572       4.448       4.306       4.140       3.963       3.693       3.353       2.976       2.547    
        2.156       1.757       1.461       1.165      0.7375      0.4364      0.3110      0.2270      0.1091       0.000    
  22    10.00       9.831       9.655       9.511       9.397       9.275       9.091       8.898       8.735       8.487    
        8.143       7.731       7.398       7.143       6.797       6.457       6.217       6.040       5.859       5.634    
        5.393       5.199       5.018       4.858       4.755       4.706       4.673       4.618       4.595       4.567    
        4.532       4.460       4.369       4.240       4.088       3.918       3.638       3.304       2.860       2.438    
        2.101       1.740       1.412      0.9718      0.6078      0.4376      0.3291      0.2190      8.6985E-02   0.000    
  23    10.00       9.793       9.621       9.501       9.377       9.194       8.987       8.835       8.629       8.371    
        8.021       7.655       7.398       7.077       6.704       6.408       6.206       6.043       5.839       5.568    
        5.312       5.083       4.843       4.558       4.306       4.256       4.330       4.365       4.413       4.430    
        4.415       4.369       4.292       4.190       4.046       3.869       3.610       3.194       2.729       2.382    
        2.060       1.650       1.177      0.7951      0.5932      0.4492      0.3288      0.2087      9.7188E-02   0.000    
  24    10.00       9.764       9.639       9.501       9.325       9.124       8.960       8.796       8.594       8.297    
        7.975       7.691       7.408       7.021       6.628       6.393       6.226       6.057       5.810       5.538    
        5.283       5.020       4.653       3.997       3.011       3.341       3.793       4.078       4.230       4.293    
        4.311       4.284       4.233       4.129       3.990       3.811       3.491       3.053       2.659       2.292    
        1.900       1.465       1.046      0.7594      0.5908      0.4470      0.3214      0.2436      0.1341       0.000    
  25    10.00       9.794       9.663       9.495       9.311       9.131       8.963       8.807       8.560       8.264    
        7.994       7.721       7.375       6.951       6.646       6.432       6.246       6.046       5.816       5.564    
        5.289       5.026       4.357       2.961     -0.2043       2.363       3.334       3.821       4.079       4.198    
        4.232       4.222       4.170       4.050       3.904       3.686       3.353       2.933       2.578       2.180    
        1.728       1.318      0.9756      0.7525      0.6151      0.4810      0.3516      0.2591      0.1692       0.000    
  26    10.00       9.824       9.700       9.520       9.330       9.172       8.999       8.802       8.549       8.319    
        8.087       7.723       7.287       6.927       6.704       6.512       6.289       6.030       5.787       5.570    
        5.358       5.070       4.452       3.438       2.373       2.893       3.455       3.810       4.029       4.155    
        4.188       4.175       4.106       3.989       3.847       3.611       3.177       2.788       2.488       2.001    
        1.509       1.169      0.9670      0.8168      0.6706      0.5218      0.3870      0.2835      0.1693       0.000    
  27    10.00       9.862       9.712       9.559       9.389       9.207       9.036       8.845       8.619       8.400    
        8.089       7.662       7.285       6.991       6.795       6.578       6.287       6.002       5.804       5.631    
        5.454       5.156       4.692       4.132       3.537       3.555       3.753       3.938       4.079       4.155    
        4.170       4.148       4.079       3.959       3.768       3.398       2.986       2.679       2.214       1.733    
        1.378       1.155       1.008      0.8809      0.7461      0.5746      0.4139      0.3098      0.2082       0.000    
  28    10.00       9.875       9.748       9.602       9.448       9.276       9.099       8.908       8.695       8.443    
        8.063       7.676       7.349       7.067       6.863       6.645       6.395       6.116       5.852       5.680    
        5.521       5.307       4.998       4.579       4.201       4.031       4.042       4.127       4.163       4.187    
        4.175       4.138       4.055       3.883       3.598       3.209       2.855       2.432       1.970       1.648    
        1.388       1.203       1.057      0.9311      0.7925      0.6283      0.4691      0.3525      0.2149       0.000    
  29    10.00       9.881       9.760       9.651       9.503       9.347       9.177       8.985       8.761       8.423    
        8.052       7.713       7.404       7.170       6.937       6.701       6.473       6.249       5.992       5.769    
        5.598       5.418       5.205       4.946       4.603       4.419       4.348       4.317       4.298       4.255    
        4.199       4.118       4.010       3.776       3.429       3.072       2.698       2.268       1.912       1.677    
        1.463       1.259       1.100      0.9766      0.8415      0.6732      0.5091      0.3728      0.2173       0.000    
  30    10.00       9.892       9.792       9.696       9.568       9.424       9.273       9.061       8.782       8.440    
        8.057       7.714       7.455       7.226       6.996       6.767       6.576       6.384       6.152       5.913    
        5.708       5.542       5.357       5.171       4.950       4.750       4.667       4.538       4.460       4.348    
        4.221       4.083       3.919       3.667       3.376       3.032       2.642       2.242       1.979       1.761    
        1.518       1.317       1.164       1.016      0.8644      0.7152      0.5430      0.3889      0.2350       0.000    
  31    10.00       9.910       9.824       9.735       9.642       9.529       9.365       9.117       8.796       8.440    
        8.072       7.753       7.508       7.274       7.070       6.858       6.658       6.510       6.288       6.058    
        5.861       5.688       5.524       5.353       5.212       5.052       4.895       4.747       4.590       4.428    
        4.234       4.042       3.867       3.658       3.364       3.002       2.627       2.293       2.078       1.881    
        1.629       1.397       1.217       1.062      0.9101      0.7518      0.5788      0.4159      0.2290       0.000    
  32    10.00       9.924       9.859       9.781       9.691       9.590       9.428       9.148       8.849       8.526    
        8.138       7.807       7.563       7.344       7.138       6.960       6.783       6.597       6.416       6.198    
        5.990       5.802       5.642       5.483       5.353       5.241       5.066       4.890       4.684       4.463    
        4.253       4.056       3.861       3.655       3.374       3.045       2.727       2.433       2.202       1.981    
        1.747       1.504       1.311       1.128      0.9543      0.8106      0.6332      0.4173      0.2074       0.000    
  33    10.00       9.935       9.882       9.819       9.733       9.618       9.414       9.144       8.894       8.597    
        8.221       7.894       7.642       7.404       7.214       7.062       6.905       6.720       6.519       6.319    
        6.102       5.900       5.713       5.558       5.452       5.340       5.170       4.954       4.741       4.528    
        4.317       4.131       3.929       3.665       3.397       3.096       2.823       2.586       2.345       2.104    
        1.885       1.654       1.441       1.249       1.054      0.8830      0.6832      0.4280      0.2017       0.000    
  34    10.00       9.942       9.906       9.852       9.746       9.589       9.393       9.195       8.938       8.617    
        8.289       7.971       7.704       7.468       7.296       7.174       7.008       6.822       6.605       6.416    
        6.219       5.982       5.795       5.650       5.543       5.412       5.216       5.022       4.800       4.567    
        4.390       4.218       4.036       3.773       3.492       3.213       2.962       2.748       2.499       2.254    
        2.043       1.830       1.604       1.406       1.199      0.9971      0.7416      0.4767      0.2513       0.000    
  35    10.00       9.952       9.911       9.844       9.713       9.549       9.407       9.238       9.004       8.661    
        8.313       8.021       7.754       7.548       7.400       7.264       7.093       6.889       6.680       6.470    
        6.288       6.079       5.888       5.752       5.635       5.506       5.295       5.059       4.824       4.603    
        4.468       4.307       4.109       3.908       3.664       3.365       3.107       2.931       2.676       2.398    
        2.198       1.984       1.768       1.574       1.342       1.116      0.8576      0.5725      0.2861       0.000    
  36    10.00       9.949       9.893       9.817       9.688       9.532       9.405       9.250       9.017       8.698    
        8.338       8.024       7.822       7.656       7.516       7.350       7.146       6.949       6.729       6.475    
        6.282       6.117       5.952       5.834       5.719       5.564       5.343       5.097       4.857       4.650    
        4.513       4.378       4.191       3.998       3.787       3.514       3.252       3.055       2.830       2.529    
        2.303       2.086       1.866       1.705       1.481       1.229      0.9711      0.6728      0.3423       0.000    
  37    10.00       9.934       9.872       9.790       9.660       9.519       9.376       9.227       9.015       8.675    
        8.312       8.052       7.925       7.768       7.586       7.421       7.192       6.955       6.692       6.441    
        6.286       6.155       6.000       5.879       5.747       5.565       5.360       5.108       4.892       4.729    
        4.581       4.429       4.235       4.064       3.844       3.582       3.373       3.181       2.930       2.630    
        2.359       2.147       1.971       1.790       1.577       1.343       1.095      0.7601      0.4119       0.000    
  38    10.00       9.928       9.847       9.760       9.641       9.503       9.347       9.192       8.968       8.654    
        8.376       8.166       8.004       7.863       7.662       7.414       7.158       6.880       6.600       6.434    
        6.312       6.156       6.013       5.906       5.766       5.565       5.318       5.090       4.956       4.821    
        4.657       4.483       4.295       4.119       3.902       3.658       3.469       3.273       2.974       2.660    
        2.424       2.226       2.046       1.865       1.675       1.449       1.192      0.8702      0.4516       0.000    
  39    10.00       9.909       9.828       9.742       9.626       9.472       9.304       9.142       8.938       8.685    
        8.468       8.311       8.130       7.933       7.649       7.333       7.021       6.726       6.554       6.443    
        6.286       6.120       6.016       5.917       5.788       5.557       5.306       5.145       5.024       4.884    
        4.710       4.541       4.349       4.159       3.973       3.769       3.550       3.322       3.013       2.701    
        2.453       2.255       2.114       1.970       1.763       1.532       1.273      0.9225      0.4518       0.000    
  40    10.00       9.894       9.816       9.729       9.612       9.453       9.281       9.116       8.943       8.734    
        8.555       8.421       8.203       7.894       7.538       7.187       6.871       6.666       6.549       6.421    
        6.250       6.106       6.010       5.897       5.747       5.561       5.387       5.222       5.077       4.946    
        4.785       4.595       4.398       4.217       4.043       3.836       3.600       3.370       3.033       2.693    
        2.467       2.302       2.155       2.031       1.822       1.564       1.326      0.9587      0.4734       0.000    
  41    10.00       9.902       9.810       9.715       9.586       9.442       9.292       9.145       8.979       8.792    
        8.623       8.463       8.175       7.787       7.395       7.076       6.826       6.650       6.530       6.386    
        6.214       6.090       5.988       5.867       5.733       5.596       5.465       5.306       5.133       4.982    
        4.836       4.653       4.453       4.287       4.104       3.901       3.659       3.338       2.965       2.702    
        2.519       2.346       2.210       2.054       1.833       1.577       1.367       1.017      0.5212       0.000    
  42    10.00       9.905       9.804       9.716       9.604       9.470       9.320       9.157       9.009       8.866    
        8.666       8.384       8.025       7.627       7.274       7.027       6.810       6.644       6.506       6.335    
        6.177       6.063       5.959       5.871       5.754       5.651       5.529       5.349       5.165       5.028    
        4.897       4.700       4.484       4.327       4.171       3.943       3.632       3.248       2.915       2.715    
        2.568       2.421       2.253       2.049       1.820       1.614       1.402       1.060      0.5453       0.000    
  43    10.00       9.907       9.814       9.724       9.636       9.516       9.367       9.207       9.047       8.845    
        8.563       8.241       7.874       7.489       7.215       7.008       6.803       6.631       6.466       6.297    
        6.148       6.041       5.962       5.893       5.790       5.677       5.559       5.384       5.218       5.105    
        4.940       4.722       4.518       4.363       4.184       3.905       3.540       3.169       2.937       2.778    
        2.623       2.464       2.259       2.039       1.829       1.630       1.440       1.056      0.4760       0.000    
  44    10.00       9.901       9.816       9.739       9.641       9.551       9.424       9.230       9.017       8.741    
        8.456       8.117       7.716       7.436       7.223       6.995       6.772       6.578       6.399       6.248    
        6.141       6.054       5.979       5.907       5.818       5.704       5.565       5.426       5.297       5.154    
        4.995       4.798       4.568       4.350       4.139       3.855       3.474       3.152       2.966       2.812    
        2.663       2.487       2.282       2.086       1.866       1.646       1.397      0.9048      0.3999       0.000    
  45    10.00       9.901       9.831       9.743       9.651       9.570       9.388       9.168       8.918       8.646    
        8.407       8.001       7.627       7.418       7.202       6.953       6.703       6.504       6.347       6.237    
        6.160       6.083       6.004       5.918       5.822       5.718       5.602       5.483       5.377       5.231    
        5.041       4.830       4.597       4.333       4.093       3.784       3.426       3.172       3.019       2.865    
        2.671       2.468       2.288       2.111       1.919       1.681       1.260      0.7587      0.3843       0.000    
  46    10.00       9.918       9.844       9.750       9.649       9.497       9.306       9.124       8.896       8.630    
        8.286       7.912       7.612       7.351       7.130       6.886       6.636       6.481       6.362       6.261    
        6.189       6.118       6.025       5.922       5.828       5.735       5.639       5.534       5.428       5.294    
        5.117       4.897       4.638       4.340       4.006       3.673       3.411       3.238       3.067       2.890    
        2.666       2.455       2.276       2.133       1.928       1.596       1.130      0.7148      0.3632       0.000    
  47    10.00       9.937       9.868       9.770       9.596       9.412       9.249       9.093       8.890       8.557    
        8.187       7.839       7.551       7.331       7.095       6.824       6.609       6.470       6.376       6.293    
        6.216       6.134       6.042       5.941       5.847       5.767       5.682       5.577       5.456       5.323    
        5.166       4.971       4.638       4.243       3.928       3.683       3.454       3.306       3.149       2.902    
        2.636       2.414       2.247       2.131       1.873       1.477       1.049      0.6880      0.3532       0.000    
  48    10.00       9.944       9.872       9.725       9.550       9.398       9.223       9.066       8.849       8.499    
        8.095       7.780       7.547       7.285       7.010       6.767       6.605       6.470       6.380       6.318    
        6.241       6.143       6.042       5.953       5.878       5.810       5.729       5.613       5.469       5.315    
        5.153       4.930       4.585       4.261       3.985       3.741       3.527       3.359       3.157       2.862    
        2.580       2.401       2.262       2.043       1.699       1.345       1.002      0.6931      0.3729       0.000    
  49    10.00       9.941       9.837       9.707       9.563       9.386       9.211       9.035       8.766       8.396    
        8.048       7.753       7.471       7.223       7.011       6.782       6.573       6.451       6.391       6.332    
        6.260       6.149       6.037       5.963       5.901       5.847       5.756       5.617       5.454       5.307    
        5.137       4.865       4.573       4.355       4.103       3.817       3.558       3.354       3.121       2.806    
        2.578       2.422       2.214       1.885       1.578       1.289      0.9908      0.6931      0.3717       0.000    
  50    10.00       9.934       9.826       9.692       9.562       9.397       9.200       8.981       8.698       8.405    
        8.042       7.673       7.412       7.213       7.034       6.776       6.545       6.453       6.400       6.340    
        6.268       6.154       6.039       5.968       5.915       5.865       5.763       5.603       5.438       5.298    
        5.124       4.843       4.617       4.422       4.158       3.874       3.604       3.325       3.006       2.741    
        2.624       2.446       2.126       1.795       1.567       1.287       1.005      0.6790      0.3027       0.000    

 HEAD WILL BE SAVED ON UNIT   51 AT END OF TIME STEP  70, STRESS PERIOD    2

 DRAWDOWN WILL BE SAVED ON UNIT   52 AT END OF TIME STEP  70, STRESS PERIOD    2
1
  VOLUMETRIC BUDGET FOR ENTIRE MODEL AT END OF TIME STEP 70 IN STRESS PERIOD   2
  ------------------------------------------------------------------------------

     CUMULATIVE VOLUMES      L**3       RATES FOR THIS TIME STEP      L**3/T
     ------------------                 ------------------------

           IN:                                      IN:
           ---                                      ---
             STORAGE =       33382.0508               STORAGE =         423.6384
       CONSTANT HEAD =       43777.1133         CONSTANT HEAD =         659.6856
               WELLS =           0.0000                 WELLS =           0.0000

            TOTAL IN =       77159.1641              TOTAL IN =        1083.3240

          OUT:                                     OUT:
          ----                                     ----
             STORAGE =       9.4320E-03               STORAGE =           0.0000
       CONSTANT HEAD =       42159.1445         CONSTANT HEAD =         583.3242
               WELLS =       35000.0000                 WELLS =         500.0000

           TOTAL OUT =       77159.1562             TOTAL OUT =        1083.3242

            IN - OUT =       7.8125E-03              IN - OUT =      -2.4414E-04

 PERCENT DISCREPANCY =           0.00     PERCENT DISCREPANCY =           0.00






          TIME SUMMARY AT END OF TIME STEP  70 IN STRESS PERIOD    2
                    SECONDS     MINUTES      HOURS       DAYS        YEARS
                    -----------------------------------------------------------
   TIME STEP LENGTH  86400.      1440.0      24.000      1.0000     2.73785E-03
 STRESS PERIOD TIME 6.04800E+06 1.00800E+05  1680.0      70.000     0.19165    
         TOTAL TIME 6.13440E+06 1.02240E+05  1704.0      71.000     0.19439    
1
 
 SOLVING FOR HEAD 

 OUTPUT CONTROL FOR STRESS PERIOD    2   TIME STEP  71
    SAVE HEAD FOR ALL LAYERS
    SAVE DRAWDOWN FOR ALL LAYERS
    SAVE BUDGET
    PRINT HEAD FOR ALL LAYERS
    PRINT BUDGET
 UBDSV1 SAVING "         STORAGE" ON UNIT  53 AT TIME STEP 71, STRESS PERIOD   2
 UBDSV2 SAVING "   CONSTANT HEAD" ON UNIT  53 AT TIME STEP 71, STRESS PERIOD   2
 UBDSV1 SAVING "FLOW RIGHT FACE " ON UNIT  53 AT TIME STEP 71, STRESS PERIOD   2
 UBDSV1 SAVING "FLOW FRONT FACE " ON UNIT  53 AT TIME STEP 71, STRESS PERIOD   2
1
              HEAD IN LAYER   1 AT END OF TIME STEP  71 IN STRESS PERIOD    2
  ---------------------------------------------------------------------------

            1           2           3           4           5           6           7           8           9          10
           11          12          13          14          15          16          17          18          19          20
           21          22          23          24          25          26          27          28          29          30
           31          32          33          34          35          36          37          38          39          40
           41          42          43          44          45          46          47          48          49          50
 ........................................................................................................................
   1    10.00       9.955       9.891       9.818       9.747       9.667       9.591       9.516       9.421       9.328    
        9.256       9.186       9.114       9.044       8.931       8.795       8.643       8.524       8.462       8.391    
        8.306       8.239       8.173       8.098       7.998       7.801       7.579       7.424       7.273       7.132    
        6.948       6.654       6.278       5.861       5.428       4.967       4.512       4.133       3.638       3.099    
        2.658       2.236       1.767       1.376       1.134      0.9302      0.7686      0.6516      0.4374       0.000    
   2    10.00       9.954       9.896       9.823       9.751       9.680       9.604       9.505       9.401       9.325    
        9.263       9.203       9.142       9.056       8.926       8.784       8.641       8.523       8.460       8.380    
        8.295       8.244       8.191       8.113       7.985       7.792       7.590       7.431       7.279       7.142    
        6.937       6.628       6.233       5.757       5.295       4.850       4.456       4.089       3.586       3.065    
        2.622       2.148       1.721       1.414       1.188       1.012      0.8123      0.6342      0.3538       0.000    
   3    10.00       9.948       9.890       9.825       9.762       9.689       9.592       9.488       9.414       9.346    
        9.276       9.221       9.168       9.084       8.952       8.776       8.620       8.525       8.451       8.370    
        8.300       8.247       8.192       8.086       7.947       7.775       7.600       7.475       7.297       7.118    
        6.860       6.493       6.041       5.579       5.170       4.757       4.371       3.977       3.454       2.971    
        2.592       2.157       1.768       1.487       1.263       1.082      0.8449      0.5667      0.2569       0.000    
   4    10.00       9.948       9.891       9.828       9.756       9.672       9.572       9.492       9.429       9.358    
        9.297       9.251       9.192       9.097       8.968       8.781       8.619       8.529       8.446       8.373    
        8.299       8.232       8.162       8.051       7.913       7.758       7.599       7.444       7.286       7.082    
        6.756       6.270       5.788       5.437       5.100       4.674       4.211       3.748       3.330       2.969    
        2.615       2.213       1.848       1.596       1.344       1.114      0.8206      0.5096      0.2441       0.000    
   5    10.00       9.944       9.887       9.815       9.743       9.665       9.575       9.506       9.440       9.374    
        9.321       9.276       9.198       9.087       8.944       8.774       8.636       8.538       8.456       8.357    
        8.267       8.196       8.109       8.001       7.878       7.718       7.559       7.416       7.258       7.007    
        6.537       5.989       5.603       5.330       4.996       4.537       4.059       3.641       3.331       3.005    
        2.660       2.291       1.931       1.697       1.428       1.096      0.7468      0.4542      0.2285       0.000    
   6    10.00       9.936       9.868       9.809       9.742       9.658       9.581       9.522       9.453       9.391    
        9.341       9.286       9.187       9.062       8.937       8.794       8.655       8.541       8.432       8.317    
        8.227       8.142       8.067       7.969       7.811       7.654       7.527       7.381       7.159       6.777    
        6.255       5.757       5.437       5.202       4.900       4.446       3.973       3.625       3.364       3.070    
        2.758       2.435       2.068       1.756       1.399       1.033      0.6593      0.3918      0.2157       0.000    
   7    10.00       9.924       9.858       9.802       9.734       9.663       9.595       9.539       9.475       9.414    
        9.352       9.269       9.161       9.043       8.924       8.811       8.665       8.510       8.383       8.271    
        8.176       8.094       8.030       7.905       7.743       7.611       7.481       7.283       6.922       6.429    
        5.933       5.532       5.317       5.109       4.758       4.332       4.016       3.682       3.400       3.210    
        2.916       2.572       2.141       1.695       1.296      0.8967      0.5675      0.3944      0.2031       0.000    
   8    10.00       9.923       9.864       9.800       9.731       9.669       9.609       9.552       9.494       9.435    
        9.353       9.247       9.140       9.028       8.918       8.791       8.607       8.443       8.340       8.232    
        8.125       8.055       7.958       7.823       7.682       7.543       7.322       7.012       6.553       6.122    
        5.753       5.448       5.253       5.015       4.640       4.290       4.006       3.760       3.545       3.329    
        3.043       2.611       2.083       1.607       1.192      0.8388      0.6004      0.3861      0.1851       0.000    
   9    10.00       9.935       9.863       9.793       9.742       9.690       9.631       9.570       9.505       9.442    
        9.347       9.226       9.109       8.996       8.879       8.728       8.550       8.399       8.287       8.176    
        8.082       7.991       7.859       7.730       7.597       7.425       7.104       6.686       6.257       5.943    
        5.641       5.392       5.178       4.882       4.537       4.245       4.031       3.852       3.661       3.425    
        3.082       2.611       2.074       1.603       1.199      0.8568      0.6055      0.3893      0.1991       0.000    
  10    10.00       9.932       9.856       9.799       9.752       9.701       9.647       9.595       9.520       9.426    
        9.310       9.183       9.071       8.966       8.844       8.658       8.470       8.339       8.236       8.133    
        8.044       7.918       7.771       7.625       7.470       7.217       6.802       6.370       6.008       5.756    
        5.563       5.355       5.095       4.796       4.477       4.235       4.075       3.921       3.714       3.443    
        3.051       2.564       2.075       1.673       1.297      0.9420      0.6241      0.4133      0.2222       0.000    
  11    10.00       9.918       9.856       9.809       9.762       9.719       9.670       9.596       9.493       9.387    
        9.271       9.147       9.043       8.915       8.748       8.570       8.416       8.300       8.206       8.101    
        7.967       7.805       7.605       7.438       7.176       6.821       6.469       6.153       5.851       5.667    
        5.519       5.251       4.969       4.723       4.480       4.298       4.133       3.937       3.682       3.354    
        2.986       2.611       2.144       1.750       1.392       1.041      0.7007      0.4058      0.1702       0.000    
  12    10.00       9.921       9.863       9.814       9.774       9.729       9.672       9.569       9.448       9.347    
        9.239       9.108       8.981       8.829       8.682       8.518       8.369       8.269       8.164       8.018    
        7.794       7.551       7.315       7.080       6.729       6.462       6.265       5.957       5.709       5.573    
        5.406       5.156       4.926       4.699       4.528       4.355       4.148       3.908       3.599       3.272    
        2.962       2.625       2.175       1.789       1.453       1.086      0.7365      0.3824      0.1269       0.000    
  13    10.00       9.936       9.881       9.829       9.781       9.728       9.636       9.518       9.404       9.300    
        9.178       9.050       8.918       8.759       8.597       8.443       8.335       8.209       8.070       7.779    
        7.439       7.182       6.922       6.609       6.341       6.214       5.992       5.721       5.589       5.464    
        5.268       5.055       4.874       4.709       4.563       4.402       4.157       3.835       3.540       3.234    
        2.940       2.593       2.110       1.752       1.465       1.076      0.6760      0.3296      0.1009       0.000    
  14    10.00       9.950       9.903       9.848       9.782       9.693       9.573       9.454       9.352       9.237    
        9.111       8.992       8.842       8.675       8.531       8.398       8.232       8.067       7.789       7.355    
        7.029       6.781       6.435       6.192       6.068       5.955       5.736       5.570       5.441       5.312    
        5.142       4.992       4.866       4.726       4.570       4.413       4.136       3.788       3.486       3.171    
        2.873       2.442       1.984       1.704       1.377       1.028      0.6754      0.3045      8.6744E-02   0.000    
  15    10.00       9.960       9.911       9.849       9.770       9.640       9.495       9.390       9.294       9.180    
        9.082       8.958       8.765       8.574       8.441       8.232       8.020       7.848       7.421       6.948    
        6.656       6.324       6.034       5.945       5.881       5.738       5.552       5.398       5.299       5.200    
        5.073       4.965       4.863       4.740       4.588       4.398       4.075       3.692       3.376       3.092    
        2.773       2.340       1.983       1.633       1.246      0.9392      0.6025      0.2787      9.4290E-02   0.000    
  16    10.00       9.967       9.914       9.837       9.721       9.566       9.436       9.352       9.267       9.153    
        9.034       8.851       8.609       8.425       8.234       7.991       7.850       7.500       6.901       6.489    
        6.233       5.952       5.850       5.799       5.681       5.495       5.351       5.276       5.231       5.146    
        5.041       4.944       4.857       4.733       4.551       4.292       3.925       3.599       3.352       3.057    
        2.689       2.265       1.881       1.502       1.170      0.8305      0.5396      0.2810      0.1003       0.000    
  17    10.00       9.962       9.898       9.795       9.663       9.502       9.387       9.315       9.212       9.091    
        8.877       8.621       8.418       8.230       7.983       7.742       7.445       6.886       6.391       6.136    
        5.937       5.790       5.719       5.597       5.414       5.283       5.242       5.220       5.175       5.091    
        4.999       4.915       4.824       4.699       4.435       4.099       3.818       3.610       3.374       3.019    
        2.555       2.142       1.787       1.432       1.048      0.6920      0.4594      0.2548      0.1061       0.000    
  18    10.00       9.946       9.864       9.744       9.570       9.434       9.353       9.244       9.120       8.937    
        8.665       8.452       8.261       7.974       7.652       7.320       6.905       6.421       6.121       5.927    
        5.778       5.650       5.536       5.371       5.245       5.206       5.190       5.167       5.108       5.028    
        4.952       4.867       4.752       4.557       4.287       4.020       3.804       3.635       3.339       2.903    
        2.458       2.029       1.672       1.339      0.9712      0.6375      0.3880      0.2127      9.9316E-02   0.000    
  19    10.00       9.928       9.833       9.658       9.485       9.405       9.302       9.161       9.009       8.800    
        8.559       8.348       8.043       7.633       7.298       6.973       6.530       6.140       5.951       5.825    
        5.667       5.506       5.377       5.239       5.173       5.154       5.132       5.088       5.017       4.949    
        4.874       4.782       4.631       4.435       4.219       3.997       3.815       3.599       3.179       2.750    
        2.399       1.962       1.576       1.253      0.8913      0.5740      0.3489      0.2018      0.1010       0.000    
  20    10.00       9.906       9.761       9.579       9.451       9.360       9.246       9.094       8.913       8.719    
        8.468       8.153       7.739       7.364       7.069       6.682       6.281       6.083       5.923       5.752    
        5.581       5.412       5.254       5.153       5.108       5.071       5.019       4.974       4.906       4.844    
        4.772       4.680       4.532       4.364       4.174       3.988       3.796       3.460       3.022       2.660    
        2.272       1.848       1.506       1.183      0.8470      0.5157      0.3030      0.2036      0.1028       0.000    
  21    10.00       9.852       9.702       9.554       9.420       9.317       9.191       8.997       8.813       8.625    
        8.298       7.902       7.514       7.207       6.890       6.520       6.235       6.062       5.880       5.693    
        5.484       5.292       5.153       5.049       4.973       4.905       4.863       4.822       4.751       4.704    
        4.656       4.560       4.437       4.296       4.130       3.953       3.684       3.346       2.969       2.541    
        2.152       1.754       1.459       1.162      0.7362      0.4357      0.3105      0.2266      0.1089       0.000    
  22    10.00       9.830       9.654       9.509       9.395       9.272       9.087       8.893       8.730       8.481    
        8.135       7.722       7.388       7.134       6.787       6.446       6.206       6.028       5.847       5.622    
        5.381       5.187       5.006       4.846       4.743       4.693       4.661       4.605       4.582       4.555    
        4.519       4.448       4.357       4.229       4.078       3.908       3.629       3.296       2.853       2.433    
        2.097       1.737       1.409      0.9700      0.6067      0.4369      0.3286      0.2186      8.6848E-02   0.000    
  23    10.00       9.792       9.619       9.499       9.374       9.191       8.982       8.831       8.624       8.365    
        8.014       7.647       7.389       7.067       6.694       6.397       6.194       6.031       5.827       5.556    
        5.300       5.071       4.831       4.546       4.293       4.244       4.317       4.352       4.400       4.417    
        4.402       4.357       4.280       4.179       4.035       3.859       3.601       3.187       2.723       2.377    
        2.056       1.646       1.175      0.7937      0.5922      0.4485      0.3283      0.2084      9.7041E-02   0.000    
  24    10.00       9.763       9.638       9.499       9.322       9.120       8.956       8.791       8.588       8.290    
        7.967       7.682       7.398       7.011       6.617       6.382       6.215       6.045       5.798       5.525    
        5.271       5.007       4.640       3.985       2.997       3.328       3.780       4.065       4.217       4.280    
        4.299       4.272       4.221       4.118       3.979       3.801       3.482       3.046       2.653       2.287    
        1.896       1.462       1.044      0.7582      0.5899      0.4463      0.3210      0.2432      0.1339       0.000    
  25    10.00       9.793       9.661       9.493       9.308       9.127       8.959       8.802       8.554       8.258    
        7.987       7.712       7.366       6.941       6.636       6.421       6.234       6.034       5.804       5.552    
        5.276       5.014       4.344       2.948     -0.2187       2.349       3.320       3.807       4.066       4.185    
        4.219       4.210       4.158       4.038       3.893       3.676       3.345       2.926       2.572       2.176    
        1.725       1.315      0.9740      0.7514      0.6142      0.4803      0.3511      0.2587      0.1689       0.000    
  26    10.00       9.823       9.698       9.518       9.327       9.169       8.995       8.797       8.543       8.313    
        8.079       7.715       7.278       6.917       6.694       6.501       6.278       6.019       5.775       5.558    
        5.346       5.057       4.439       3.425       2.360       2.879       3.442       3.796       4.016       4.142    
        4.175       4.162       4.093       3.977       3.837       3.602       3.169       2.782       2.482       1.997    
        1.506       1.167      0.9656      0.8157      0.6696      0.5211      0.3865      0.2831      0.1691       0.000    
  27    10.00       9.862       9.711       9.557       9.387       9.204       9.032       8.841       8.614       8.394    
        8.082       7.653       7.275       6.981       6.785       6.567       6.276       5.991       5.792       5.619    
        5.441       5.143       4.680       4.119       3.523       3.541       3.739       3.925       4.066       4.142    
        4.157       4.135       4.067       3.948       3.757       3.389       2.979       2.673       2.209       1.730    
        1.376       1.154       1.007      0.8797      0.7451      0.5738      0.4133      0.3094      0.2079       0.000    
  28    10.00       9.874       9.747       9.600       9.446       9.273       9.095       8.904       8.690       8.437    
        8.056       7.668       7.340       7.057       6.853       6.634       6.385       6.104       5.840       5.668    
        5.509       5.295       4.986       4.566       4.188       4.018       4.029       4.114       4.150       4.174    
        4.163       4.125       4.044       3.873       3.589       3.201       2.848       2.427       1.967       1.646    
        1.386       1.202       1.056      0.9298      0.7914      0.6274      0.4685      0.3521      0.2147       0.000    
  29    10.00       9.880       9.759       9.650       9.502       9.344       9.173       8.981       8.756       8.418    
        8.045       7.705       7.395       7.161       6.927       6.690       6.462       6.238       5.981       5.758    
        5.586       5.406       5.192       4.934       4.590       4.406       4.335       4.304       4.285       4.243    
        4.187       4.107       3.999       3.766       3.421       3.065       2.692       2.264       1.909       1.674    
        1.461       1.258       1.098      0.9753      0.8404      0.6723      0.5084      0.3723      0.2171       0.000    
  30    10.00       9.891       9.791       9.695       9.566       9.422       9.270       9.057       8.777       8.434    
        8.050       7.706       7.447       7.217       6.987       6.757       6.566       6.373       6.141       5.902    
        5.697       5.530       5.345       5.158       4.938       4.737       4.655       4.525       4.448       4.336    
        4.210       4.073       3.910       3.659       3.369       3.026       2.637       2.239       1.976       1.758    
        1.516       1.316       1.162       1.015      0.8633      0.7143      0.5423      0.3884      0.2347       0.000    
  31    10.00       9.910       9.823       9.734       9.641       9.527       9.363       9.113       8.791       8.435    
        8.066       7.746       7.500       7.266       7.061       6.849       6.648       6.500       6.277       6.047    
        5.849       5.676       5.513       5.342       5.200       5.040       4.883       4.735       4.578       4.417    
        4.225       4.033       3.860       3.651       3.358       2.997       2.622       2.290       2.075       1.879    
        1.627       1.396       1.216       1.060      0.9090      0.7509      0.5781      0.4154      0.2287       0.000    
  32    10.00       9.924       9.858       9.780       9.690       9.588       9.426       9.145       8.845       8.521    
        8.131       7.800       7.555       7.335       7.129       6.951       6.773       6.587       6.406       6.187    
        5.979       5.791       5.631       5.472       5.341       5.229       5.054       4.879       4.674       4.454    
        4.245       4.048       3.854       3.649       3.369       3.040       2.724       2.430       2.199       1.979    
        1.745       1.502       1.310       1.127      0.9532      0.8097      0.6325      0.4169      0.2072       0.000    
  33    10.00       9.935       9.881       9.819       9.732       9.616       9.412       9.141       8.890       8.592    
        8.215       7.887       7.635       7.396       7.206       7.053       6.895       6.710       6.509       6.309    
        6.091       5.890       5.703       5.547       5.441       5.329       5.160       4.945       4.732       4.520    
        4.310       4.124       3.923       3.659       3.392       3.092       2.820       2.583       2.342       2.101    
        1.883       1.652       1.440       1.247       1.053      0.8821      0.6826      0.4276      0.2015       0.000    
  34    10.00       9.942       9.906       9.851       9.745       9.588       9.391       9.192       8.935       8.613    
        8.283       7.965       7.697       7.460       7.288       7.166       6.999       6.813       6.596       6.406    
        6.209       5.972       5.785       5.640       5.533       5.402       5.206       5.013       4.792       4.560    
        4.383       4.212       4.030       3.768       3.487       3.209       2.958       2.745       2.496       2.252    
        2.041       1.828       1.602       1.405       1.198      0.9963      0.7411      0.4764      0.2512       0.000    
  35    10.00       9.952       9.911       9.843       9.713       9.547       9.405       9.236       9.001       8.657    
        8.308       8.015       7.747       7.541       7.392       7.256       7.084       6.880       6.671       6.461    
        6.279       6.070       5.879       5.743       5.626       5.497       5.286       5.051       4.817       4.597    
        4.462       4.302       4.105       3.904       3.660       3.361       3.104       2.929       2.674       2.396    
        2.196       1.982       1.767       1.573       1.341       1.115      0.8571      0.5722      0.2859       0.000    
  36    10.00       9.949       9.892       9.816       9.687       9.531       9.403       9.248       9.014       8.695    
        8.333       8.018       7.816       7.650       7.510       7.343       7.139       6.941       6.721       6.467    
        6.274       6.109       5.944       5.826       5.711       5.556       5.336       5.091       4.851       4.645    
        4.508       4.373       4.186       3.994       3.783       3.511       3.249       3.053       2.828       2.527    
        2.301       2.085       1.865       1.704       1.480       1.229      0.9706      0.6725      0.3421       0.000    
  37    10.00       9.934       9.872       9.789       9.659       9.517       9.375       9.225       9.012       8.671    
        8.307       8.047       7.920       7.762       7.580       7.415       7.185       6.948       6.685       6.434    
        6.279       6.148       5.993       5.872       5.739       5.559       5.354       5.103       4.887       4.725    
        4.577       4.425       4.232       4.061       3.841       3.579       3.371       3.179       2.928       2.629    
        2.358       2.146       1.970       1.789       1.576       1.342       1.094      0.7598      0.4117       0.000    
  38    10.00       9.928       9.847       9.760       9.641       9.502       9.345       9.190       8.966       8.651    
        8.372       8.161       7.998       7.857       7.656       7.408       7.152       6.874       6.594       6.428    
        6.306       6.149       6.007       5.900       5.760       5.559       5.313       5.086       4.952       4.817    
        4.653       4.480       4.291       4.115       3.899       3.656       3.466       3.271       2.972       2.658    
        2.422       2.225       2.046       1.864       1.674       1.448       1.192      0.8699      0.4514       0.000    
  39    10.00       9.908       9.828       9.741       9.625       9.471       9.303       9.140       8.936       8.682    
        8.464       8.307       8.126       7.928       7.644       7.328       7.016       6.721       6.549       6.438    
        6.280       6.115       6.011       5.912       5.783       5.553       5.303       5.142       5.020       4.880    
        4.707       4.538       4.346       4.156       3.970       3.766       3.548       3.320       3.011       2.700    
        2.452       2.254       2.113       1.969       1.762       1.531       1.272      0.9221      0.4517       0.000    
  40    10.00       9.894       9.815       9.729       9.612       9.452       9.279       9.115       8.941       8.731    
        8.552       8.417       8.199       7.890       7.534       7.183       6.867       6.662       6.544       6.416    
        6.245       6.101       6.006       5.893       5.743       5.558       5.384       5.218       5.073       4.943    
        4.782       4.592       4.395       4.214       4.041       3.834       3.598       3.368       3.031       2.691    
        2.466       2.301       2.154       2.030       1.821       1.563       1.326      0.9583      0.4732       0.000    
  41    10.00       9.902       9.810       9.715       9.586       9.441       9.290       9.143       8.977       8.790    
        8.620       8.460       8.172       7.784       7.392       7.073       6.822       6.646       6.526       6.382    
        6.210       6.087       5.984       5.864       5.729       5.592       5.461       5.303       5.130       4.979    
        4.833       4.651       4.450       4.284       4.102       3.899       3.657       3.336       2.963       2.701    
        2.518       2.345       2.210       2.053       1.832       1.577       1.367       1.017      0.5210       0.000    
  42    10.00       9.905       9.804       9.716       9.604       9.469       9.319       9.155       9.008       8.864    
        8.664       8.382       8.023       7.624       7.271       7.024       6.807       6.641       6.503       6.332    
        6.173       6.060       5.956       5.868       5.751       5.649       5.526       5.346       5.162       5.026    
        4.895       4.698       4.481       4.325       4.169       3.941       3.631       3.247       2.914       2.713    
        2.567       2.420       2.252       2.048       1.819       1.614       1.401       1.059      0.5451       0.000    
  43    10.00       9.907       9.814       9.724       9.635       9.516       9.366       9.205       9.046       8.843    
        8.562       8.238       7.871       7.487       7.212       7.005       6.800       6.628       6.463       6.294    
        6.145       6.038       5.960       5.891       5.788       5.675       5.557       5.381       5.215       5.102    
        4.937       4.720       4.516       4.361       4.182       3.903       3.539       3.168       2.936       2.777    
        2.622       2.463       2.259       2.038       1.829       1.630       1.439       1.056      0.4759       0.000    
  44    10.00       9.901       9.816       9.739       9.641       9.550       9.424       9.229       9.016       8.739    
        8.455       8.115       7.713       7.433       7.220       6.992       6.769       6.575       6.396       6.245    
        6.138       6.051       5.977       5.905       5.816       5.702       5.563       5.424       5.295       5.152    
        4.993       4.796       4.566       4.348       4.137       3.853       3.472       3.151       2.965       2.811    
        2.662       2.486       2.282       2.085       1.866       1.645       1.396      0.9045      0.3998       0.000    
  45    10.00       9.901       9.831       9.742       9.651       9.569       9.387       9.167       8.917       8.645    
        8.405       7.999       7.625       7.416       7.200       6.951       6.701       6.502       6.344       6.234    
        6.157       6.080       6.001       5.915       5.820       5.716       5.599       5.481       5.375       5.229    
        5.038       4.828       4.595       4.331       4.091       3.782       3.424       3.171       3.018       2.863    
        2.670       2.467       2.288       2.110       1.918       1.681       1.259      0.7584      0.3842       0.000    
  46    10.00       9.918       9.844       9.750       9.649       9.497       9.305       9.123       8.895       8.628    
        8.284       7.911       7.611       7.349       7.128       6.883       6.634       6.479       6.360       6.258    
        6.186       6.115       6.022       5.919       5.825       5.732       5.637       5.531       5.426       5.292    
        5.114       4.895       4.636       4.338       4.004       3.672       3.410       3.237       3.066       2.889    
        2.666       2.454       2.276       2.133       1.927       1.596       1.129      0.7146      0.3631       0.000    
  47    10.00       9.936       9.868       9.769       9.596       9.412       9.248       9.093       8.889       8.556    
        8.185       7.838       7.549       7.330       7.093       6.822       6.607       6.468       6.374       6.290    
        6.214       6.132       6.040       5.938       5.845       5.764       5.679       5.575       5.453       5.320    
        5.164       4.969       4.636       4.241       3.927       3.681       3.453       3.304       3.148       2.901    
        2.635       2.413       2.246       2.130       1.872       1.477       1.049      0.6879      0.3531       0.000    
  48    10.00       9.944       9.872       9.725       9.549       9.397       9.222       9.065       8.848       8.498    
        8.094       7.779       7.545       7.283       7.008       6.765       6.603       6.468       6.377       6.316    
        6.239       6.140       6.039       5.951       5.876       5.807       5.726       5.611       5.467       5.313    
        5.151       4.928       4.584       4.259       3.984       3.740       3.526       3.358       3.156       2.861    
        2.579       2.401       2.261       2.043       1.698       1.344       1.002      0.6929      0.3728       0.000    
  49    10.00       9.941       9.837       9.706       9.563       9.386       9.210       9.034       8.765       8.394    
        8.046       7.752       7.469       7.221       7.009       6.780       6.571       6.449       6.389       6.329    
        6.258       6.146       6.034       5.961       5.899       5.845       5.754       5.615       5.452       5.304    
        5.135       4.863       4.571       4.354       4.101       3.815       3.557       3.353       3.120       2.805    
        2.578       2.421       2.213       1.884       1.578       1.289      0.9905      0.6930      0.3716       0.000    
  50    10.00       9.934       9.826       9.692       9.562       9.396       9.200       8.980       8.697       8.404    
        8.040       7.671       7.410       7.212       7.033       6.774       6.542       6.451       6.398       6.338    
        6.266       6.151       6.037       5.965       5.913       5.863       5.760       5.601       5.436       5.296    
        5.122       4.841       4.615       4.420       4.157       3.873       3.602       3.324       3.005       2.741    
        2.623       2.446       2.125       1.795       1.566       1.286       1.004      0.6788      0.3026       0.000    

 HEAD WILL BE SAVED ON UNIT   51 AT END OF TIME STEP  71, STRESS PERIOD    2

 DRAWDOWN WILL BE SAVED ON UNIT   52 AT END OF TIME STEP  71, STRESS PERIOD    2
1
  VOLUMETRIC BUDGET FOR ENTIRE MODEL AT END OF TIME STEP 71 IN STRESS PERIOD   2
  ------------------------------------------------------------------------------

     CUMULATIVE VOLUMES      L**3       RATES FOR THIS TIME STEP      L**3/T
     ------------------                 ------------------------

           IN:                                      IN:
           ---                                      ---
             STORAGE =       33803.5664               STORAGE =         421.5167
       CONSTANT HEAD =       44438.3828         CONSTANT HEAD =         661.2681
               WELLS =           0.0000                 WELLS =           0.0000

            TOTAL IN =       78241.9531              TOTAL IN =        1082.7848

          OUT:                                     OUT:
          ----                                     ----
             STORAGE =       9.4320E-03               STORAGE =           0.0000
       CONSTANT HEAD =       42741.9297         CONSTANT HEAD =         582.7842
               WELLS =       35500.0000                 WELLS =         500.0000

           TOTAL OUT =       78241.9375             TOTAL OUT =        1082.7842

            IN - OUT =       1.5625E-02              IN - OUT =       6.1035E-04

 PERCENT DISCREPANCY =           0.00     PERCENT DISCREPANCY =           0.00






          TIME SUMMARY AT END OF TIME STEP  71 IN STRESS PERIOD    2
                    SECONDS     MINUTES      HOURS       DAYS        YEARS
                    -----------------------------------------------------------
   TIME STEP LENGTH  86400.      1440.0      24.000      1.0000     2.73785E-03
 STRESS PERIOD TIME 6.13440E+06 1.02240E+05  1704.0      71.000     0.19439    
         TOTAL TIME 6.22080E+06 1.03680E+05  1728.0      72.000     0.19713    
1
 
 SOLVING FOR HEAD 

 OUTPUT CONTROL FOR STRESS PERIOD    2   TIME STEP  72
    SAVE HEAD FOR ALL LAYERS
    SAVE DRAWDOWN FOR ALL LAYERS
    SAVE BUDGET
    PRINT HEAD FOR ALL LAYERS
    PRINT BUDGET
 UBDSV1 SAVING "         STORAGE" ON UNIT  53 AT TIME STEP 72, STRESS PERIOD   2
 UBDSV2 SAVING "   CONSTANT HEAD" ON UNIT  53 AT TIME STEP 72, STRESS PERIOD   2
 UBDSV1 SAVING "FLOW RIGHT FACE " ON UNIT  53 AT TIME STEP 72, STRESS PERIOD   2
 UBDSV1 SAVING "FLOW FRONT FACE " ON UNIT  53 AT TIME STEP 72, STRESS PERIOD   2
1
              HEAD IN LAYER   1 AT END OF TIME STEP  72 IN STRESS PERIOD    2
  ---------------------------------------------------------------------------

            1           2           3           4           5           6           7           8           9          10
           11          12          13          14          15          16          17          18          19          20
           21          22          23          24          25          26          27          28          29          30
           31          32          33          34          35          36          37          38          39          40
           41          42          43          44          45          46          47          48          49          50
 ........................................................................................................................
   1    10.00       9.955       9.891       9.818       9.747       9.666       9.590       9.514       9.419       9.326    
        9.254       9.184       9.111       9.042       8.928       8.792       8.640       8.520       8.459       8.387    
        8.303       8.235       8.170       8.094       7.994       7.797       7.574       7.420       7.269       7.128    
        6.944       6.650       6.274       5.857       5.424       4.964       4.508       4.129       3.635       3.097    
        2.655       2.234       1.766       1.374       1.133      0.9294      0.7679      0.6510      0.4370       0.000    
   2    10.00       9.954       9.896       9.822       9.750       9.679       9.603       9.504       9.400       9.323    
        9.261       9.201       9.140       9.054       8.924       8.781       8.638       8.520       8.457       8.377    
        8.291       8.241       8.188       8.109       7.981       7.788       7.586       7.427       7.275       7.137    
        6.932       6.624       6.229       5.753       5.292       4.847       4.452       4.086       3.583       3.062    
        2.620       2.146       1.720       1.413       1.187       1.011      0.8116      0.6336      0.3535       0.000    
   3    10.00       9.948       9.890       9.824       9.761       9.689       9.591       9.486       9.413       9.344    
        9.275       9.219       9.166       9.082       8.950       8.773       8.617       8.522       8.447       8.366    
        8.297       8.244       8.189       8.083       7.943       7.771       7.596       7.471       7.293       7.114    
        6.855       6.489       6.036       5.574       5.166       4.753       4.368       3.974       3.451       2.969    
        2.590       2.155       1.766       1.486       1.262       1.081      0.8441      0.5661      0.2567       0.000    
   4    10.00       9.948       9.891       9.827       9.755       9.671       9.571       9.491       9.427       9.357    
        9.295       9.250       9.190       9.095       8.966       8.778       8.616       8.526       8.443       8.370    
        8.295       8.229       8.158       8.047       7.909       7.754       7.595       7.440       7.282       7.077    
        6.752       6.265       5.783       5.433       5.096       4.670       4.207       3.745       3.327       2.966    
        2.613       2.210       1.846       1.594       1.343       1.113      0.8199      0.5091      0.2439       0.000    
   5    10.00       9.944       9.887       9.815       9.742       9.664       9.574       9.504       9.439       9.373    
        9.320       9.275       9.196       9.085       8.942       8.771       8.633       8.535       8.452       8.354    
        8.263       8.192       8.106       7.997       7.873       7.714       7.555       7.412       7.254       7.002    
        6.532       5.984       5.598       5.325       4.992       4.533       4.055       3.638       3.328       3.002    
        2.657       2.289       1.929       1.696       1.426       1.095      0.7461      0.4538      0.2283       0.000    
   6    10.00       9.936       9.868       9.808       9.742       9.657       9.580       9.521       9.452       9.390    
        9.339       9.284       9.185       9.060       8.934       8.791       8.652       8.538       8.428       8.314    
        8.223       8.138       8.063       7.965       7.807       7.650       7.522       7.376       7.155       6.772    
        6.250       5.752       5.431       5.197       4.895       4.441       3.969       3.621       3.360       3.067    
        2.755       2.433       2.066       1.754       1.397       1.032      0.6586      0.3914      0.2155       0.000    
   7    10.00       9.924       9.857       9.802       9.733       9.662       9.594       9.538       9.474       9.413    
        9.351       9.267       9.159       9.040       8.921       8.809       8.662       8.506       8.379       8.267    
        8.172       8.090       8.025       7.901       7.738       7.606       7.476       7.278       6.916       6.423    
        5.927       5.526       5.311       5.103       4.753       4.327       4.012       3.677       3.396       3.207    
        2.913       2.569       2.139       1.694       1.295      0.8958      0.5669      0.3940      0.2029       0.000    
   8    10.00       9.923       9.863       9.800       9.731       9.668       9.608       9.551       9.493       9.434    
        9.352       9.245       9.138       9.025       8.915       8.788       8.604       8.440       8.336       8.228    
        8.121       8.051       7.954       7.819       7.677       7.538       7.317       7.006       6.547       6.116    
        5.747       5.442       5.247       5.009       4.634       4.285       4.001       3.755       3.540       3.325    
        3.039       2.608       2.081       1.606       1.191      0.8379      0.5998      0.3857      0.1849       0.000    
   9    10.00       9.935       9.862       9.793       9.742       9.689       9.630       9.569       9.504       9.440    
        9.345       9.224       9.107       8.994       8.876       8.725       8.546       8.395       8.283       8.172    
        8.077       7.987       7.854       7.725       7.592       7.420       7.098       6.680       6.250       5.936    
        5.634       5.386       5.172       4.876       4.531       4.240       4.025       3.847       3.656       3.421    
        3.078       2.608       2.072       1.601       1.198      0.8558      0.6048      0.3889      0.1989       0.000    
  10    10.00       9.932       9.856       9.799       9.751       9.701       9.646       9.594       9.518       9.424    
        9.308       9.181       9.069       8.963       8.841       8.654       8.466       8.335       8.232       8.128    
        8.039       7.913       7.766       7.620       7.464       7.211       6.796       6.363       6.000       5.749    
        5.556       5.348       5.088       4.789       4.470       4.229       4.069       3.916       3.709       3.438    
        3.047       2.561       2.072       1.671       1.295      0.9409      0.6234      0.4129      0.2220       0.000    
  11    10.00       9.918       9.856       9.809       9.762       9.718       9.669       9.595       9.491       9.385    
        9.269       9.144       9.040       8.912       8.745       8.567       8.412       8.295       8.201       8.096    
        7.962       7.800       7.600       7.432       7.169       6.814       6.461       6.145       5.844       5.659    
        5.511       5.244       4.962       4.716       4.474       4.292       4.127       3.931       3.677       3.349    
        2.982       2.608       2.141       1.747       1.390       1.040      0.6999      0.4054      0.1701       0.000    
  12    10.00       9.920       9.863       9.813       9.773       9.728       9.671       9.568       9.446       9.345    
        9.236       9.106       8.978       8.826       8.679       8.514       8.365       8.265       8.159       8.013    
        7.788       7.545       7.309       7.073       6.721       6.454       6.257       5.948       5.701       5.565    
        5.398       5.148       4.918       4.692       4.521       4.348       4.141       3.902       3.594       3.267    
        2.958       2.621       2.172       1.786       1.451       1.085      0.7356      0.3820      0.1268       0.000    
  13    10.00       9.936       9.881       9.828       9.781       9.727       9.635       9.516       9.402       9.298    
        9.176       9.048       8.915       8.756       8.593       8.439       8.330       8.204       8.065       7.773    
        7.433       7.175       6.914       6.601       6.332       6.205       5.983       5.712       5.580       5.455    
        5.259       5.046       4.866       4.701       4.555       4.395       4.150       3.829       3.535       3.229    
        2.936       2.589       2.107       1.750       1.463       1.074      0.6751      0.3292      0.1008       0.000    
  14    10.00       9.950       9.903       9.847       9.781       9.692       9.572       9.453       9.350       9.235    
        9.109       8.989       8.838       8.671       8.527       8.393       8.226       8.062       7.783       7.348    
        7.021       6.773       6.426       6.182       6.059       5.945       5.726       5.560       5.431       5.302    
        5.133       4.983       4.857       4.717       4.562       4.405       4.129       3.782       3.480       3.166    
        2.868       2.438       1.981       1.701       1.376       1.026      0.6744      0.3041      8.6624E-02   0.000    
  15    10.00       9.960       9.911       9.849       9.769       9.639       9.493       9.388       9.291       9.177    
        9.079       8.955       8.761       8.570       8.436       8.227       8.015       7.842       7.414       6.940    
        6.646       6.315       6.024       5.935       5.871       5.727       5.542       5.387       5.288       5.190    
        5.063       4.956       4.854       4.731       4.580       4.390       4.068       3.686       3.370       3.087    
        2.768       2.337       1.980       1.631       1.245      0.9378      0.6016      0.2783      9.4152E-02   0.000    
  16    10.00       9.967       9.914       9.837       9.720       9.564       9.434       9.350       9.265       9.150    
        9.031       8.847       8.605       8.420       8.228       7.985       7.844       7.492       6.892       6.479    
        6.223       5.941       5.839       5.789       5.670       5.484       5.340       5.265       5.220       5.136    
        5.031       4.934       4.848       4.724       4.542       4.284       3.918       3.592       3.346       3.052    
        2.684       2.261       1.878       1.500       1.168      0.8292      0.5387      0.2806      0.1002       0.000    
  17    10.00       9.962       9.898       9.795       9.662       9.500       9.385       9.312       9.209       9.088    
        8.873       8.616       8.413       8.224       7.976       7.735       7.437       6.876       6.381       6.125    
        5.926       5.779       5.708       5.586       5.403       5.271       5.230       5.209       5.165       5.081    
        4.989       4.905       4.814       4.689       4.426       4.091       3.810       3.602       3.367       3.013    
        2.550       2.139       1.784       1.430       1.046      0.6908      0.4586      0.2544      0.1060       0.000    
  18    10.00       9.946       9.864       9.743       9.568       9.432       9.351       9.242       9.116       8.933    
        8.660       8.446       8.255       7.967       7.644       7.312       6.895       6.411       6.110       5.916    
        5.766       5.639       5.525       5.360       5.234       5.195       5.178       5.156       5.097       5.017    
        4.941       4.857       4.742       4.547       4.278       4.011       3.796       3.627       3.332       2.897    
        2.454       2.025       1.669       1.337      0.9695      0.6365      0.3873      0.2124      9.9156E-02   0.000    
  19    10.00       9.928       9.832       9.657       9.483       9.403       9.300       9.157       9.005       8.796    
        8.554       8.342       8.036       7.625       7.289       6.964       6.520       6.129       5.939       5.814    
        5.656       5.494       5.365       5.228       5.161       5.143       5.120       5.076       5.006       4.937    
        4.863       4.771       4.621       4.425       4.210       3.988       3.807       3.591       3.172       2.745    
        2.394       1.958       1.573       1.250      0.8898      0.5731      0.3483      0.2015      0.1009       0.000    
  20    10.00       9.906       9.760       9.578       9.449       9.358       9.243       9.091       8.909       8.714    
        8.462       8.147       7.731       7.355       7.059       6.671       6.270       6.071       5.912       5.741    
        5.569       5.400       5.242       5.141       5.096       5.059       5.008       4.962       4.894       4.832    
        4.761       4.669       4.521       4.354       4.164       3.979       3.788       3.452       3.015       2.655    
        2.267       1.844       1.503       1.181      0.8455      0.5148      0.3025      0.2032      0.1027       0.000    
  21    10.00       9.851       9.701       9.552       9.417       9.314       9.188       8.993       8.809       8.620    
        8.291       7.894       7.505       7.197       6.880       6.509       6.224       6.051       5.868       5.681    
        5.472       5.280       5.141       5.037       4.961       4.893       4.851       4.810       4.739       4.692    
        4.644       4.549       4.425       4.285       4.119       3.943       3.675       3.338       2.962       2.536    
        2.147       1.750       1.456       1.160      0.7349      0.4349      0.3100      0.2262      0.1088       0.000    
  22    10.00       9.829       9.652       9.506       9.392       9.269       9.083       8.889       8.725       8.475    
        8.128       7.714       7.379       7.124       6.777       6.435       6.195       6.017       5.836       5.610    
        5.369       5.175       4.994       4.834       4.730       4.681       4.648       4.593       4.570       4.543    
        4.507       4.436       4.346       4.218       4.067       3.898       3.620       3.288       2.847       2.428    
        2.092       1.733       1.406      0.9683      0.6057      0.4361      0.3280      0.2183      8.6711E-02   0.000    
  23    10.00       9.791       9.618       9.497       9.372       9.187       8.978       8.826       8.618       8.358    
        8.006       7.638       7.380       7.057       6.683       6.386       6.183       6.019       5.815       5.544    
        5.288       5.058       4.819       4.533       4.280       4.231       4.304       4.339       4.388       4.404    
        4.390       4.345       4.268       4.167       4.024       3.849       3.592       3.179       2.717       2.372    
        2.052       1.643       1.173      0.7924      0.5913      0.4478      0.3278      0.2081      9.6893E-02   0.000    
  24    10.00       9.762       9.636       9.497       9.319       9.117       8.952       8.786       8.582       8.284    
        7.960       7.674       7.389       7.001       6.606       6.371       6.203       6.033       5.786       5.513    
        5.258       4.995       4.628       3.972       2.984       3.315       3.767       4.052       4.204       4.267    
        4.286       4.259       4.209       4.106       3.968       3.791       3.473       3.038       2.647       2.282    
        1.892       1.459       1.042      0.7570      0.5890      0.4456      0.3205      0.2429      0.1337       0.000    
  25    10.00       9.792       9.660       9.491       9.305       9.124       8.955       8.798       8.548       8.251    
        7.980       7.704       7.357       6.931       6.625       6.410       6.223       6.023       5.793       5.540    
        5.264       5.001       4.332       2.935     -0.2328       2.335       3.307       3.794       4.053       4.172    
        4.207       4.197       4.146       4.027       3.882       3.666       3.336       2.919       2.566       2.171    
        1.721       1.313      0.9724      0.7502      0.6132      0.4796      0.3505      0.2584      0.1687       0.000    
  26    10.00       9.822       9.697       9.516       9.324       9.165       8.991       8.793       8.538       8.306    
        8.072       7.707       7.269       6.907       6.683       6.490       6.267       6.007       5.763       5.546    
        5.334       5.045       4.426       3.412       2.346       2.866       3.428       3.783       4.002       4.129    
        4.162       4.150       4.081       3.966       3.826       3.592       3.161       2.775       2.476       1.993    
        1.504       1.165      0.9642      0.8145      0.6687      0.5203      0.3859      0.2827      0.1689       0.000    
  27    10.00       9.861       9.710       9.555       9.384       9.201       9.028       8.836       8.609       8.388    
        8.075       7.645       7.266       6.971       6.774       6.557       6.265       5.979       5.780       5.607    
        5.429       5.131       4.667       4.106       3.510       3.528       3.726       3.911       4.053       4.129    
        4.144       4.123       4.055       3.937       3.747       3.380       2.972       2.667       2.205       1.727    
        1.374       1.152       1.005      0.8784      0.7441      0.5730      0.4127      0.3090      0.2077       0.000    
  28    10.00       9.874       9.746       9.599       9.444       9.271       9.092       8.899       8.685       8.431    
        8.049       7.659       7.331       7.048       6.843       6.624       6.374       6.093       5.828       5.656    
        5.497       5.283       4.973       4.553       4.175       4.005       4.015       4.100       4.136       4.161    
        4.150       4.113       4.032       3.862       3.579       3.193       2.842       2.422       1.963       1.643    
        1.384       1.200       1.054      0.9285      0.7903      0.6266      0.4679      0.3516      0.2144       0.000    
  29    10.00       9.880       9.758       9.649       9.500       9.342       9.170       8.977       8.751       8.412    
        8.038       7.697       7.386       7.152       6.917       6.680       6.451       6.227       5.970       5.746    
        5.575       5.394       5.180       4.921       4.577       4.393       4.322       4.291       4.272       4.230    
        4.175       4.096       3.988       3.757       3.413       3.059       2.687       2.260       1.906       1.672    
        1.459       1.256       1.097      0.9740      0.8393      0.6715      0.5078      0.3719      0.2168       0.000    
  30    10.00       9.891       9.790       9.694       9.565       9.420       9.267       9.054       8.773       8.428    
        8.043       7.698       7.438       7.208       6.977       6.747       6.556       6.362       6.130       5.891    
        5.685       5.519       5.333       5.146       4.926       4.725       4.642       4.513       4.435       4.325    
        4.199       4.063       3.901       3.652       3.362       3.021       2.633       2.235       1.973       1.756    
        1.514       1.314       1.161       1.014      0.8622      0.7134      0.5417      0.3879      0.2344       0.000    
  31    10.00       9.910       9.823       9.733       9.640       9.526       9.360       9.110       8.787       8.429    
        8.059       7.738       7.492       7.257       7.051       6.839       6.638       6.490       6.266       6.036    
        5.838       5.664       5.501       5.330       5.188       5.028       4.871       4.723       4.567       4.406    
        4.215       4.025       3.852       3.644       3.352       2.992       2.618       2.287       2.072       1.876    
        1.625       1.394       1.214       1.059      0.9079      0.7500      0.5774      0.4150      0.2284       0.000    
  32    10.00       9.924       9.858       9.780       9.689       9.587       9.424       9.142       8.841       8.515    
        8.125       7.793       7.547       7.327       7.121       6.942       6.764       6.577       6.396       6.176    
        5.968       5.779       5.619       5.460       5.330       5.218       5.043       4.868       4.663       4.445    
        4.236       4.041       3.847       3.642       3.363       3.035       2.720       2.426       2.196       1.976    
        1.743       1.500       1.308       1.126      0.9522      0.8088      0.6318      0.4164      0.2070       0.000    
  33    10.00       9.935       9.881       9.818       9.731       9.615       9.410       9.139       8.886       8.587    
        8.209       7.880       7.627       7.388       7.198       7.044       6.886       6.701       6.500       6.299    
        6.081       5.879       5.692       5.536       5.431       5.318       5.149       4.935       4.723       4.512    
        4.303       4.117       3.917       3.654       3.387       3.087       2.816       2.579       2.339       2.099    
        1.881       1.650       1.438       1.246       1.052      0.8813      0.6820      0.4273      0.2013       0.000    
  34    10.00       9.941       9.905       9.851       9.744       9.586       9.390       9.190       8.932       8.608    
        8.278       7.959       7.690       7.453       7.280       7.158       6.991       6.805       6.586       6.397    
        6.199       5.962       5.774       5.630       5.523       5.392       5.197       5.004       4.784       4.553    
        4.377       4.205       4.024       3.763       3.483       3.205       2.955       2.742       2.494       2.250    
        2.039       1.827       1.601       1.404       1.197      0.9956      0.7406      0.4761      0.2510       0.000    
  35    10.00       9.952       9.911       9.843       9.712       9.546       9.403       9.234       8.998       8.653    
        8.303       8.009       7.741       7.534       7.385       7.248       7.076       6.872       6.662       6.452    
        6.271       6.061       5.870       5.733       5.617       5.488       5.278       5.043       4.810       4.591    
        4.456       4.297       4.100       3.900       3.656       3.358       3.101       2.926       2.672       2.394    
        2.195       1.981       1.766       1.572       1.340       1.114      0.8566      0.5719      0.2858       0.000    
  36    10.00       9.949       9.892       9.816       9.686       9.529       9.401       9.245       9.011       8.691    
        8.328       8.013       7.810       7.643       7.503       7.336       7.131       6.933       6.713       6.459    
        6.266       6.101       5.936       5.818       5.703       5.548       5.329       5.084       4.846       4.640    
        4.504       4.369       4.182       3.990       3.780       3.508       3.246       3.050       2.826       2.525    
        2.299       2.084       1.864       1.703       1.479       1.228      0.9701      0.6722      0.3420       0.000    
  37    10.00       9.934       9.871       9.789       9.659       9.516       9.373       9.223       9.010       8.668    
        8.303       8.042       7.914       7.756       7.573       7.408       7.178       6.941       6.678       6.427    
        6.272       6.141       5.986       5.865       5.732       5.552       5.347       5.097       4.883       4.720    
        4.572       4.421       4.228       4.057       3.838       3.577       3.368       3.177       2.926       2.627    
        2.356       2.145       1.969       1.788       1.575       1.342       1.094      0.7595      0.4115       0.000    
  38    10.00       9.928       9.847       9.759       9.640       9.501       9.344       9.188       8.963       8.648    
        8.368       8.157       7.993       7.852       7.650       7.401       7.146       6.868       6.588       6.422    
        6.300       6.143       6.001       5.894       5.754       5.553       5.309       5.082       4.948       4.813    
        4.650       4.476       4.288       4.112       3.896       3.653       3.464       3.269       2.970       2.657    
        2.421       2.224       2.045       1.863       1.674       1.448       1.191      0.8695      0.4512       0.000    
  39    10.00       9.908       9.827       9.741       9.624       9.470       9.301       9.138       8.934       8.679    
        8.461       8.303       8.121       7.923       7.639       7.322       7.010       6.716       6.544       6.432    
        6.275       6.110       6.006       5.907       5.778       5.548       5.299       5.138       5.017       4.877    
        4.703       4.535       4.343       4.153       3.968       3.764       3.546       3.318       3.009       2.699    
        2.451       2.253       2.113       1.968       1.761       1.530       1.272      0.9218      0.4515       0.000    
  40    10.00       9.893       9.815       9.728       9.611       9.451       9.278       9.113       8.939       8.729    
        8.549       8.414       8.195       7.886       7.530       7.178       6.863       6.657       6.540       6.412    
        6.241       6.097       6.001       5.889       5.739       5.555       5.380       5.215       5.070       4.940    
        4.779       4.589       4.392       4.212       4.039       3.832       3.596       3.366       3.030       2.690    
        2.465       2.300       2.154       2.029       1.820       1.563       1.325      0.9580      0.4731       0.000    
  41    10.00       9.902       9.810       9.714       9.585       9.440       9.289       9.142       8.976       8.788    
        8.617       8.457       8.168       7.780       7.388       7.069       6.818       6.642       6.522       6.378    
        6.206       6.083       5.980       5.860       5.726       5.589       5.458       5.300       5.127       4.976    
        4.831       4.648       4.448       4.282       4.100       3.897       3.656       3.335       2.962       2.700    
        2.517       2.344       2.209       2.052       1.831       1.576       1.366       1.017      0.5208       0.000    
  42    10.00       9.905       9.803       9.715       9.603       9.468       9.318       9.154       9.006       8.862    
        8.662       8.379       8.020       7.621       7.268       7.021       6.804       6.637       6.499       6.328    
        6.170       6.056       5.953       5.865       5.748       5.646       5.523       5.343       5.159       5.023    
        4.892       4.695       4.479       4.323       4.167       3.939       3.629       3.245       2.913       2.712    
        2.566       2.419       2.252       2.048       1.819       1.613       1.401       1.059      0.5449       0.000    
  43    10.00       9.907       9.813       9.724       9.635       9.515       9.365       9.204       9.044       8.842    
        8.560       8.236       7.869       7.484       7.210       7.002       6.797       6.625       6.460       6.291    
        6.142       6.035       5.957       5.888       5.785       5.672       5.554       5.379       5.213       5.100    
        4.935       4.717       4.514       4.359       4.180       3.902       3.537       3.166       2.935       2.776    
        2.621       2.462       2.258       2.037       1.828       1.629       1.439       1.056      0.4757       0.000    
  44    10.00       9.901       9.816       9.738       9.641       9.550       9.423       9.228       9.015       8.738    
        8.453       8.113       7.711       7.431       7.218       6.989       6.766       6.572       6.393       6.242    
        6.135       6.049       5.974       5.902       5.813       5.699       5.560       5.421       5.292       5.149    
        4.991       4.794       4.564       4.346       4.135       3.851       3.471       3.149       2.964       2.810    
        2.661       2.485       2.281       2.084       1.865       1.645       1.396      0.9042      0.3997       0.000    
  45    10.00       9.901       9.831       9.742       9.650       9.569       9.386       9.166       8.916       8.644    
        8.404       7.997       7.623       7.414       7.197       6.949       6.698       6.499       6.342       6.232    
        6.155       6.078       5.999       5.912       5.817       5.713       5.597       5.478       5.373       5.226    
        5.036       4.826       4.593       4.329       4.089       3.781       3.423       3.170       3.016       2.862    
        2.669       2.466       2.287       2.109       1.918       1.680       1.259      0.7582      0.3840       0.000    
  46    10.00       9.918       9.844       9.750       9.648       9.496       9.304       9.122       8.894       8.627    
        8.283       7.909       7.609       7.347       7.126       6.881       6.631       6.476       6.357       6.256    
        6.184       6.113       6.020       5.917       5.823       5.730       5.634       5.529       5.423       5.289    
        5.112       4.893       4.634       4.336       4.002       3.670       3.409       3.235       3.065       2.888    
        2.665       2.453       2.275       2.132       1.926       1.595       1.129      0.7144      0.3630       0.000    
  47    10.00       9.936       9.867       9.769       9.595       9.411       9.247       9.092       8.888       8.555    
        8.184       7.836       7.547       7.328       7.091       6.819       6.604       6.466       6.372       6.288    
        6.211       6.129       6.037       5.936       5.842       5.762       5.677       5.572       5.451       5.318    
        5.162       4.967       4.634       4.239       3.925       3.680       3.452       3.303       3.146       2.900    
        2.634       2.413       2.246       2.129       1.872       1.476       1.049      0.6877      0.3530       0.000    
  48    10.00       9.944       9.871       9.725       9.549       9.396       9.221       9.064       8.847       8.497    
        8.093       7.777       7.543       7.281       7.006       6.763       6.601       6.465       6.375       6.313    
        6.236       6.138       6.037       5.949       5.873       5.805       5.724       5.608       5.465       5.310    
        5.149       4.926       4.582       4.258       3.982       3.738       3.525       3.357       3.154       2.860    
        2.578       2.400       2.260       2.042       1.698       1.344       1.001      0.6927      0.3727       0.000    
  49    10.00       9.941       9.837       9.706       9.563       9.385       9.209       9.033       8.764       8.393    
        8.045       7.750       7.468       7.219       7.007       6.778       6.569       6.447       6.387       6.327    
        6.255       6.144       6.032       5.958       5.896       5.843       5.752       5.612       5.450       5.302    
        5.133       4.861       4.569       4.352       4.100       3.814       3.556       3.352       3.119       2.804    
        2.577       2.421       2.213       1.884       1.577       1.288      0.9902      0.6928      0.3715       0.000    
  50    10.00       9.934       9.825       9.691       9.561       9.396       9.199       8.979       8.696       8.403    
        8.039       7.670       7.408       7.210       7.030       6.772       6.540       6.449       6.395       6.335    
        6.264       6.149       6.034       5.963       5.910       5.860       5.758       5.599       5.434       5.293    
        5.120       4.839       4.613       4.419       4.155       3.871       3.601       3.323       3.004       2.740    
        2.622       2.445       2.124       1.794       1.566       1.286       1.004      0.6786      0.3026       0.000    

 HEAD WILL BE SAVED ON UNIT   51 AT END OF TIME STEP  72, STRESS PERIOD    2

 DRAWDOWN WILL BE SAVED ON UNIT   52 AT END OF TIME STEP  72, STRESS PERIOD    2
1
  VOLUMETRIC BUDGET FOR ENTIRE MODEL AT END OF TIME STEP 72 IN STRESS PERIOD   2
  ------------------------------------------------------------------------------

     CUMULATIVE VOLUMES      L**3       RATES FOR THIS TIME STEP      L**3/T
     ------------------                 ------------------------

           IN:                                      IN:
           ---                                      ---
             STORAGE =       34222.9531               STORAGE =         419.3883
       CONSTANT HEAD =       45101.2305         CONSTANT HEAD =         662.8488
               WELLS =           0.0000                 WELLS =           0.0000

            TOTAL IN =       79324.1875              TOTAL IN =        1082.2371

          OUT:                                     OUT:
          ----                                     ----
             STORAGE =       9.4320E-03               STORAGE =           0.0000
       CONSTANT HEAD =       43324.1680         CONSTANT HEAD =         582.2375
               WELLS =       36000.0000                 WELLS =         500.0000

           TOTAL OUT =       79324.1797             TOTAL OUT =        1082.2375

            IN - OUT =       7.8125E-03              IN - OUT =      -4.8828E-04

 PERCENT DISCREPANCY =           0.00     PERCENT DISCREPANCY =           0.00






          TIME SUMMARY AT END OF TIME STEP  72 IN STRESS PERIOD    2
                    SECONDS     MINUTES      HOURS       DAYS        YEARS
                    -----------------------------------------------------------
   TIME STEP LENGTH  86400.      1440.0      24.000      1.0000     2.73785E-03
 STRESS PERIOD TIME 6.22080E+06 1.03680E+05  1728.0      72.000     0.19713    
         TOTAL TIME 6.30720E+06 1.05120E+05  1752.0      73.000     0.19986    
1
 
 SOLVING FOR HEAD 

 OUTPUT CONTROL FOR STRESS PERIOD    2   TIME STEP  73
    SAVE HEAD FOR ALL LAYERS
    SAVE DRAWDOWN FOR ALL LAYERS
    SAVE BUDGET
    PRINT HEAD FOR ALL LAYERS
    PRINT BUDGET
 UBDSV1 SAVING "         STORAGE" ON UNIT  53 AT TIME STEP 73, STRESS PERIOD   2
 UBDSV2 SAVING "   CONSTANT HEAD" ON UNIT  53 AT TIME STEP 73, STRESS PERIOD   2
 UBDSV1 SAVING "FLOW RIGHT FACE " ON UNIT  53 AT TIME STEP 73, STRESS PERIOD   2
 UBDSV1 SAVING "FLOW FRONT FACE " ON UNIT  53 AT TIME STEP 73, STRESS PERIOD   2
1
              HEAD IN LAYER   1 AT END OF TIME STEP  73 IN STRESS PERIOD    2
  ---------------------------------------------------------------------------

            1           2           3           4           5           6           7           8           9          10
           11          12          13          14          15          16          17          18          19          20
           21          22          23          24          25          26          27          28          29          30
           31          32          33          34          35          36          37          38          39          40
           41          42          43          44          45          46          47          48          49          50
 ........................................................................................................................
   1    10.00       9.955       9.891       9.817       9.746       9.665       9.589       9.513       9.418       9.325    
        9.252       9.182       9.109       9.039       8.926       8.789       8.637       8.517       8.455       8.384    
        8.299       8.232       8.166       8.090       7.990       7.793       7.570       7.416       7.265       7.124    
        6.940       6.646       6.270       5.853       5.420       4.960       4.505       4.126       3.632       3.094    
        2.653       2.232       1.764       1.373       1.132      0.9285      0.7672      0.6504      0.4366       0.000    
   2    10.00       9.954       9.896       9.822       9.749       9.678       9.602       9.502       9.398       9.322    
        9.259       9.199       9.138       9.051       8.921       8.778       8.635       8.517       8.453       8.373    
        8.288       8.237       8.184       8.105       7.977       7.784       7.582       7.423       7.271       7.133    
        6.928       6.620       6.225       5.749       5.288       4.843       4.449       4.083       3.580       3.060    
        2.617       2.144       1.718       1.412       1.185       1.011      0.8108      0.6330      0.3532       0.000    
   3    10.00       9.948       9.889       9.824       9.760       9.688       9.590       9.485       9.411       9.343    
        9.273       9.218       9.164       9.080       8.947       8.771       8.614       8.519       8.444       8.363    
        8.293       8.240       8.185       8.079       7.939       7.767       7.592       7.466       7.289       7.109    
        6.851       6.485       6.032       5.570       5.163       4.749       4.364       3.970       3.448       2.966    
        2.588       2.153       1.764       1.484       1.261       1.080      0.8433      0.5656      0.2565       0.000    
   4    10.00       9.948       9.890       9.827       9.755       9.670       9.570       9.490       9.426       9.355    
        9.294       9.248       9.188       9.093       8.963       8.775       8.612       8.522       8.439       8.366    
        8.291       8.225       8.154       8.043       7.905       7.750       7.590       7.435       7.277       7.073    
        6.747       6.261       5.779       5.428       5.092       4.666       4.203       3.742       3.324       2.963    
        2.610       2.208       1.844       1.593       1.341       1.111      0.8191      0.5086      0.2437       0.000    
   5    10.00       9.944       9.886       9.814       9.742       9.663       9.573       9.503       9.437       9.371    
        9.318       9.273       9.194       9.083       8.939       8.768       8.630       8.531       8.449       8.350    
        8.260       8.188       8.102       7.993       7.869       7.709       7.551       7.407       7.249       6.998    
        6.527       5.979       5.593       5.320       4.987       4.528       4.051       3.634       3.324       2.999    
        2.654       2.287       1.927       1.694       1.425       1.094      0.7453      0.4533      0.2280       0.000    
   6    10.00       9.936       9.868       9.808       9.741       9.656       9.579       9.520       9.451       9.388    
        9.338       9.283       9.184       9.058       8.932       8.788       8.649       8.535       8.425       8.310    
        8.219       8.134       8.059       7.961       7.803       7.645       7.517       7.371       7.150       6.766    
        6.244       5.746       5.426       5.192       4.890       4.437       3.965       3.617       3.356       3.064    
        2.752       2.430       2.064       1.752       1.396       1.031      0.6579      0.3910      0.2153       0.000    
   7    10.00       9.924       9.857       9.801       9.732       9.661       9.593       9.537       9.473       9.411    
        9.349       9.266       9.157       9.038       8.919       8.806       8.659       8.503       8.376       8.263    
        8.168       8.086       8.021       7.896       7.734       7.602       7.471       7.273       6.911       6.418    
        5.921       5.520       5.305       5.098       4.748       4.322       4.007       3.673       3.392       3.203    
        2.909       2.566       2.137       1.692       1.293      0.8949      0.5663      0.3936      0.2027       0.000    
   8    10.00       9.923       9.863       9.799       9.730       9.667       9.607       9.550       9.491       9.432    
        9.350       9.244       9.136       9.023       8.913       8.785       8.600       8.436       8.332       8.224    
        8.117       8.047       7.949       7.814       7.672       7.533       7.312       7.001       6.541       6.109    
        5.740       5.436       5.241       5.003       4.629       4.280       3.996       3.751       3.536       3.321    
        3.036       2.605       2.078       1.604       1.189      0.8370      0.5991      0.3853      0.1847       0.000    
   9    10.00       9.935       9.862       9.792       9.741       9.688       9.629       9.568       9.502       9.439    
        9.343       9.222       9.104       8.991       8.873       8.722       8.543       8.391       8.279       8.168    
        8.073       7.982       7.849       7.720       7.587       7.414       7.092       6.674       6.244       5.929    
        5.627       5.379       5.166       4.870       4.525       4.234       4.020       3.842       3.651       3.416    
        3.074       2.605       2.069       1.599       1.197      0.8549      0.6042      0.3885      0.1987       0.000    
  10    10.00       9.932       9.855       9.798       9.751       9.700       9.646       9.593       9.517       9.423    
        9.307       9.179       9.066       8.960       8.838       8.651       8.463       8.331       8.228       8.124    
        8.035       7.908       7.761       7.614       7.458       7.205       6.789       6.356       5.993       5.741    
        5.549       5.341       5.081       4.782       4.464       4.224       4.064       3.910       3.704       3.434    
        3.043       2.557       2.069       1.669       1.294      0.9398      0.6227      0.4124      0.2217       0.000    
  11    10.00       9.918       9.855       9.808       9.761       9.718       9.668       9.594       9.490       9.383    
        9.267       9.142       9.037       8.909       8.741       8.563       8.408       8.291       8.197       8.091    
        7.957       7.794       7.594       7.427       7.163       6.807       6.454       6.138       5.836       5.651    
        5.504       5.236       4.955       4.709       4.467       4.286       4.121       3.926       3.672       3.345    
        2.978       2.604       2.138       1.745       1.389       1.039      0.6991      0.4049      0.1699       0.000    
  12    10.00       9.920       9.862       9.813       9.773       9.727       9.670       9.566       9.445       9.343    
        9.234       9.103       8.975       8.822       8.675       8.510       8.361       8.260       8.155       8.008    
        7.783       7.539       7.302       7.067       6.714       6.446       6.249       5.940       5.693       5.557    
        5.390       5.140       4.910       4.684       4.514       4.341       4.135       3.897       3.589       3.262    
        2.954       2.618       2.169       1.784       1.450       1.084      0.7347      0.3815      0.1266       0.000    
  13    10.00       9.935       9.881       9.828       9.780       9.726       9.634       9.515       9.400       9.296    
        9.173       9.045       8.912       8.752       8.589       8.435       8.325       8.200       8.060       7.767    
        7.426       7.168       6.907       6.592       6.323       6.197       5.974       5.703       5.571       5.447    
        5.250       5.038       4.858       4.693       4.548       4.388       4.143       3.823       3.529       3.224    
        2.931       2.585       2.104       1.747       1.461       1.073      0.6742      0.3288      0.1006       0.000    
  14    10.00       9.950       9.903       9.847       9.780       9.691       9.571       9.451       9.347       9.232    
        9.106       8.986       8.835       8.667       8.522       8.388       8.221       8.056       7.777       7.341    
        7.014       6.764       6.417       6.173       6.049       5.936       5.717       5.550       5.422       5.293    
        5.124       4.974       4.849       4.709       4.554       4.398       4.122       3.776       3.474       3.161    
        2.864       2.434       1.978       1.699       1.373       1.025      0.6735      0.3037      8.6503E-02   0.000    
  15    10.00       9.960       9.911       9.848       9.768       9.637       9.491       9.386       9.289       9.175    
        9.076       8.952       8.757       8.565       8.432       8.221       8.009       7.836       7.407       6.931    
        6.638       6.305       6.014       5.924       5.861       5.717       5.531       5.377       5.278       5.180    
        5.053       4.946       4.845       4.722       4.572       4.382       4.061       3.679       3.364       3.081    
        2.764       2.333       1.976       1.628       1.243      0.9364      0.6007      0.2779      9.4013E-02   0.000    
  16    10.00       9.967       9.914       9.836       9.719       9.563       9.432       9.348       9.262       9.147    
        9.028       8.844       8.600       8.415       8.222       7.979       7.837       7.485       6.883       6.470    
        6.213       5.931       5.829       5.778       5.660       5.473       5.330       5.254       5.210       5.126    
        5.021       4.924       4.838       4.715       4.534       4.276       3.910       3.585       3.340       3.046    
        2.679       2.257       1.875       1.497       1.166      0.8279      0.5379      0.2801      0.1000       0.000    
  17    10.00       9.962       9.898       9.794       9.660       9.499       9.383       9.310       9.207       9.084    
        8.869       8.612       8.407       8.218       7.970       7.727       7.429       6.867       6.370       6.115    
        5.915       5.768       5.698       5.575       5.391       5.260       5.219       5.198       5.154       5.070    
        4.979       4.895       4.805       4.680       4.417       4.083       3.803       3.595       3.361       3.007    
        2.546       2.135       1.781       1.427       1.044      0.6897      0.4579      0.2540      0.1058       0.000    
  18    10.00       9.946       9.863       9.742       9.567       9.430       9.349       9.239       9.113       8.929    
        8.655       8.441       8.249       7.961       7.637       7.303       6.886       6.401       6.099       5.905    
        5.755       5.628       5.514       5.348       5.222       5.183       5.167       5.145       5.086       5.006    
        4.930       4.846       4.732       4.538       4.269       4.003       3.788       3.620       3.326       2.892    
        2.449       2.022       1.666       1.335      0.9679      0.6354      0.3867      0.2120      9.8994E-02   0.000    
  19    10.00       9.927       9.832       9.655       9.480       9.400       9.297       9.154       9.001       8.791    
        8.549       8.336       8.029       7.617       7.281       6.954       6.509       6.118       5.928       5.803    
        5.644       5.483       5.354       5.216       5.149       5.131       5.109       5.065       4.994       4.926    
        4.852       4.760       4.610       4.415       4.201       3.979       3.799       3.584       3.165       2.739    
        2.390       1.954       1.570       1.248      0.8882      0.5721      0.3477      0.2011      0.1007       0.000    
  20    10.00       9.906       9.759       9.576       9.447       9.355       9.240       9.087       8.905       8.709    
        8.456       8.140       7.723       7.347       7.050       6.661       6.259       6.060       5.901       5.729    
        5.558       5.389       5.230       5.129       5.084       5.047       4.996       4.950       4.882       4.821    
        4.750       4.658       4.510       4.344       4.154       3.970       3.779       3.444       3.009       2.649    
        2.263       1.840       1.500       1.179      0.8440      0.5139      0.3020      0.2029      0.1025       0.000    
  21    10.00       9.851       9.700       9.550       9.415       9.311       9.185       8.989       8.804       8.615    
        8.285       7.886       7.497       7.188       6.870       6.499       6.213       6.040       5.857       5.670    
        5.460       5.268       5.129       5.026       4.949       4.881       4.839       4.798       4.727       4.680    
        4.632       4.537       4.414       4.274       4.109       3.934       3.667       3.330       2.956       2.530    
        2.143       1.747       1.453       1.158      0.7336      0.4342      0.3095      0.2259      0.1086       0.000    
  22    10.00       9.829       9.651       9.504       9.390       9.266       9.080       8.884       8.720       8.469    
        8.121       7.706       7.370       7.114       6.766       6.424       6.184       6.005       5.824       5.598    
        5.357       5.163       4.982       4.822       4.718       4.669       4.636       4.581       4.558       4.531    
        4.495       4.424       4.334       4.207       4.057       3.888       3.612       3.280       2.841       2.422    
        2.088       1.730       1.404      0.9665      0.6047      0.4354      0.3275      0.2179      8.6572E-02   0.000    
  23    10.00       9.790       9.616       9.495       9.369       9.184       8.974       8.821       8.613       8.352    
        7.999       7.630       7.371       7.047       6.673       6.375       6.172       6.008       5.803       5.533    
        5.276       5.046       4.806       4.521       4.268       4.219       4.292       4.327       4.375       4.392    
        4.378       4.333       4.257       4.156       4.014       3.839       3.583       3.171       2.711       2.367    
        2.047       1.640       1.171      0.7910      0.5903      0.4471      0.3272      0.2077      9.6743E-02   0.000    
  24    10.00       9.761       9.635       9.495       9.317       9.113       8.948       8.782       8.577       8.277    
        7.953       7.666       7.380       6.991       6.596       6.360       6.192       6.022       5.775       5.502    
        5.246       4.983       4.615       3.959       2.971       3.302       3.754       4.039       4.192       4.255    
        4.274       4.247       4.197       4.095       3.957       3.781       3.464       3.031       2.641       2.277    
        1.888       1.456       1.040      0.7557      0.5880      0.4449      0.3200      0.2425      0.1335       0.000    
  25    10.00       9.791       9.658       9.489       9.302       9.120       8.951       8.793       8.543       8.245    
        7.972       7.696       7.348       6.921       6.615       6.399       6.212       6.012       5.781       5.528    
        5.252       4.989       4.319       2.922     -0.2468       2.322       3.294       3.781       4.040       4.159    
        4.194       4.185       4.134       4.016       3.871       3.656       3.327       2.912       2.560       2.166    
        1.718       1.311      0.9709      0.7491      0.6123      0.4789      0.3500      0.2580      0.1684       0.000    
  26    10.00       9.822       9.696       9.514       9.321       9.162       8.987       8.788       8.532       8.300    
        8.065       7.698       7.260       6.897       6.673       6.479       6.256       5.996       5.752       5.534    
        5.322       5.033       4.414       3.399       2.333       2.853       3.415       3.770       3.989       4.117    
        4.150       4.138       4.070       3.954       3.815       3.582       3.153       2.769       2.471       1.989    
        1.501       1.163      0.9627      0.8133      0.6677      0.5196      0.3854      0.2823      0.1686       0.000    
  27    10.00       9.861       9.708       9.553       9.382       9.198       9.024       8.832       8.604       8.382    
        8.068       7.637       7.257       6.962       6.764       6.546       6.254       5.968       5.769       5.596    
        5.417       5.119       4.655       4.094       3.497       3.514       3.713       3.898       4.040       4.116    
        4.132       4.111       4.044       3.925       3.737       3.371       2.965       2.661       2.200       1.724    
        1.372       1.150       1.004      0.8772      0.7430      0.5722      0.4122      0.3086      0.2074       0.000    
  28    10.00       9.873       9.745       9.597       9.441       9.268       9.088       8.895       8.681       8.425    
        8.043       7.651       7.322       7.038       6.833       6.614       6.363       6.082       5.817       5.645    
        5.485       5.271       4.961       4.540       4.162       3.992       4.002       4.087       4.124       4.148    
        4.138       4.101       4.021       3.851       3.570       3.186       2.836       2.417       1.960       1.640    
        1.382       1.198       1.053      0.9272      0.7893      0.6257      0.4672      0.3511      0.2141       0.000    
  29    10.00       9.880       9.757       9.647       9.498       9.339       9.167       8.974       8.747       8.406    
        8.031       7.690       7.378       7.143       6.907       6.670       6.441       6.216       5.959       5.734    
        5.563       5.382       5.168       4.909       4.565       4.380       4.309       4.278       4.260       4.218    
        4.163       4.084       3.978       3.747       3.405       3.052       2.681       2.256       1.903       1.669    
        1.457       1.254       1.095      0.9727      0.8382      0.6706      0.5071      0.3714      0.2165       0.000    
  30    10.00       9.890       9.789       9.693       9.563       9.417       9.265       9.050       8.768       8.423    
        8.037       7.691       7.430       7.199       6.968       6.737       6.546       6.352       6.119       5.879    
        5.674       5.507       5.321       5.134       4.913       4.713       4.630       4.500       4.423       4.313    
        4.188       4.053       3.891       3.644       3.355       3.015       2.628       2.232       1.970       1.753    
        1.512       1.312       1.159       1.013      0.8611      0.7125      0.5410      0.3874      0.2341       0.000    
  31    10.00       9.909       9.822       9.732       9.638       9.524       9.358       9.107       8.783       8.424    
        8.052       7.731       7.484       7.248       7.042       6.830       6.628       6.480       6.256       6.025    
        5.827       5.653       5.489       5.318       5.176       5.017       4.859       4.711       4.555       4.395    
        4.205       4.016       3.844       3.637       3.346       2.987       2.614       2.283       2.069       1.874    
        1.623       1.392       1.213       1.058      0.9068      0.7491      0.5767      0.4145      0.2282       0.000    
  32    10.00       9.924       9.857       9.779       9.688       9.585       9.422       9.139       8.837       8.510    
        8.119       7.785       7.540       7.318       7.112       6.933       6.754       6.567       6.386       6.166    
        5.957       5.768       5.608       5.449       5.319       5.207       5.032       4.857       4.653       4.435    
        4.228       4.033       3.840       3.636       3.358       3.031       2.716       2.423       2.193       1.973    
        1.741       1.499       1.307       1.125      0.9511      0.8079      0.6311      0.4160      0.2067       0.000    
  33    10.00       9.934       9.880       9.817       9.730       9.614       9.408       9.136       8.882       8.583    
        8.204       7.873       7.620       7.381       7.190       7.036       6.877       6.691       6.490       6.289    
        6.071       5.869       5.681       5.526       5.420       5.308       5.139       4.925       4.714       4.504    
        4.295       4.110       3.910       3.648       3.382       3.083       2.812       2.576       2.337       2.096    
        1.879       1.648       1.437       1.245       1.051      0.8805      0.6814      0.4269      0.2011       0.000    
  34    10.00       9.941       9.905       9.850       9.743       9.585       9.388       9.187       8.928       8.604    
        8.272       7.952       7.683       7.445       7.272       7.150       6.982       6.796       6.577       6.388    
        6.190       5.952       5.765       5.620       5.512       5.382       5.188       4.996       4.776       4.546    
        4.370       4.199       4.019       3.758       3.478       3.201       2.951       2.739       2.491       2.248    
        2.037       1.825       1.599       1.403       1.196      0.9948      0.7400      0.4757      0.2508       0.000    
  35    10.00       9.952       9.910       9.842       9.711       9.545       9.401       9.231       8.995       8.649    
        8.297       8.004       7.734       7.528       7.378       7.240       7.068       6.863       6.654       6.444    
        6.262       6.052       5.861       5.724       5.608       5.479       5.269       5.036       4.803       4.585    
        4.451       4.291       4.095       3.895       3.652       3.354       3.098       2.923       2.669       2.392    
        2.193       1.979       1.765       1.571       1.339       1.114      0.8561      0.5716      0.2856       0.000    
  36    10.00       9.949       9.892       9.815       9.685       9.528       9.400       9.243       9.008       8.687    
        8.324       8.008       7.804       7.637       7.496       7.329       7.123       6.925       6.705       6.451    
        6.259       6.093       5.928       5.810       5.695       5.540       5.322       5.077       4.840       4.635    
        4.499       4.364       4.178       3.986       3.776       3.505       3.243       3.048       2.824       2.523    
        2.298       2.082       1.863       1.702       1.478       1.227      0.9696      0.6719      0.3418       0.000    
  37    10.00       9.934       9.871       9.788       9.658       9.515       9.371       9.221       9.007       8.664    
        8.299       8.037       7.909       7.751       7.567       7.401       7.171       6.934       6.671       6.420    
        6.265       6.133       5.979       5.857       5.725       5.545       5.341       5.092       4.878       4.716    
        4.568       4.417       4.224       4.054       3.835       3.574       3.366       3.174       2.924       2.625    
        2.355       2.144       1.968       1.787       1.575       1.341       1.093      0.7592      0.4114       0.000    
  38    10.00       9.927       9.846       9.759       9.639       9.500       9.342       9.186       8.961       8.644    
        8.364       8.152       7.988       7.846       7.644       7.395       7.139       6.861       6.582       6.416    
        6.294       6.137       5.995       5.888       5.748       5.548       5.304       5.077       4.944       4.809    
        4.646       4.473       4.285       4.109       3.893       3.651       3.462       3.267       2.968       2.655    
        2.420       2.223       2.044       1.863       1.673       1.447       1.191      0.8691      0.4510       0.000    
  39    10.00       9.908       9.827       9.740       9.623       9.469       9.300       9.136       8.931       8.676    
        8.458       8.299       8.117       7.918       7.634       7.317       7.005       6.711       6.539       6.427    
        6.270       6.105       6.001       5.902       5.773       5.544       5.295       5.134       5.013       4.873    
        4.700       4.532       4.340       4.150       3.965       3.762       3.543       3.316       3.008       2.697    
        2.449       2.252       2.112       1.967       1.761       1.530       1.271      0.9214      0.4513       0.000    
  40    10.00       9.893       9.815       9.728       9.610       9.450       9.277       9.111       8.937       8.726    
        8.546       8.410       8.191       7.882       7.525       7.174       6.858       6.653       6.535       6.407    
        6.236       6.093       5.997       5.885       5.735       5.551       5.377       5.212       5.067       4.936    
        4.776       4.587       4.390       4.209       4.036       3.829       3.594       3.364       3.028       2.689    
        2.464       2.299       2.153       2.028       1.819       1.562       1.325      0.9576      0.4729       0.000    
  41    10.00       9.902       9.809       9.714       9.584       9.439       9.288       9.140       8.974       8.785    
        8.615       8.454       8.165       7.777       7.384       7.065       6.814       6.638       6.518       6.374    
        6.203       6.079       5.977       5.857       5.723       5.586       5.455       5.297       5.124       4.973    
        4.828       4.645       4.446       4.280       4.097       3.895       3.654       3.333       2.960       2.699    
        2.515       2.343       2.208       2.051       1.831       1.576       1.366       1.016      0.5206       0.000    
  42    10.00       9.905       9.803       9.715       9.602       9.467       9.317       9.152       9.004       8.860    
        8.659       8.377       8.017       7.618       7.265       7.018       6.800       6.634       6.496       6.325    
        6.167       6.053       5.950       5.862       5.745       5.643       5.520       5.340       5.157       5.020    
        4.890       4.693       4.477       4.321       4.165       3.937       3.627       3.244       2.911       2.711    
        2.565       2.418       2.251       2.047       1.818       1.613       1.400       1.059      0.5448       0.000    
  43    10.00       9.907       9.813       9.723       9.634       9.514       9.364       9.203       9.043       8.840    
        8.558       8.234       7.867       7.482       7.207       6.999       6.794       6.622       6.456       6.288    
        6.139       6.032       5.954       5.885       5.782       5.669       5.551       5.376       5.210       5.097    
        4.932       4.715       4.511       4.357       4.178       3.900       3.536       3.165       2.934       2.775    
        2.619       2.461       2.257       2.037       1.827       1.629       1.438       1.055      0.4755       0.000    
  44    10.00       9.901       9.816       9.738       9.640       9.549       9.422       9.227       9.014       8.736    
        8.451       8.111       7.709       7.429       7.215       6.987       6.764       6.569       6.390       6.240    
        6.132       6.046       5.971       5.899       5.810       5.696       5.557       5.419       5.290       5.147    
        4.988       4.791       4.562       4.343       4.133       3.849       3.469       3.148       2.962       2.809    
        2.660       2.485       2.280       2.084       1.865       1.644       1.395      0.9039      0.3995       0.000    
  45    10.00       9.901       9.831       9.742       9.650       9.568       9.385       9.165       8.915       8.642    
        8.402       7.995       7.621       7.411       7.195       6.946       6.696       6.497       6.339       6.229    
        6.152       6.075       5.996       5.910       5.815       5.711       5.594       5.476       5.370       5.224    
        5.034       4.823       4.591       4.327       4.088       3.779       3.422       3.168       3.015       2.861    
        2.668       2.465       2.286       2.108       1.917       1.680       1.258      0.7579      0.3839       0.000    
  46    10.00       9.918       9.843       9.749       9.648       9.496       9.304       9.122       8.893       8.626    
        8.282       7.907       7.607       7.345       7.124       6.879       6.629       6.474       6.355       6.253    
        6.181       6.110       6.017       5.914       5.820       5.727       5.632       5.526       5.421       5.287    
        5.110       4.890       4.632       4.334       4.001       3.669       3.407       3.234       3.064       2.887    
        2.664       2.453       2.274       2.131       1.926       1.595       1.129      0.7142      0.3629       0.000    
  47    10.00       9.936       9.867       9.769       9.595       9.411       9.246       9.091       8.887       8.554    
        8.182       7.835       7.546       7.326       7.089       6.817       6.602       6.463       6.369       6.286    
        6.209       6.127       6.035       5.933       5.840       5.759       5.674       5.570       5.448       5.316    
        5.160       4.965       4.632       4.238       3.924       3.678       3.450       3.302       3.145       2.899    
        2.633       2.412       2.245       2.129       1.871       1.476       1.048      0.6875      0.3529       0.000    
  48    10.00       9.944       9.871       9.724       9.549       9.396       9.221       9.064       8.846       8.496    
        8.091       7.776       7.542       7.279       7.004       6.761       6.598       6.463       6.373       6.311    
        6.234       6.135       6.034       5.946       5.871       5.802       5.721       5.606       5.462       5.308    
        5.147       4.924       4.580       4.256       3.981       3.737       3.523       3.355       3.153       2.859    
        2.578       2.399       2.260       2.042       1.697       1.343       1.001      0.6925      0.3726       0.000    
  49    10.00       9.941       9.837       9.706       9.562       9.385       9.208       9.032       8.763       8.392    
        8.043       7.748       7.466       7.217       7.005       6.776       6.567       6.444       6.384       6.325    
        6.253       6.141       6.029       5.956       5.894       5.840       5.749       5.610       5.448       5.300    
        5.131       4.859       4.567       4.350       4.098       3.812       3.554       3.351       3.118       2.803    
        2.576       2.420       2.212       1.883       1.577       1.288      0.9900      0.6926      0.3714       0.000    
  50    10.00       9.934       9.825       9.691       9.561       9.395       9.198       8.978       8.695       8.402    
        8.037       7.668       7.406       7.208       7.028       6.770       6.538       6.447       6.393       6.333    
        6.261       6.146       6.032       5.961       5.908       5.858       5.755       5.596       5.432       5.291    
        5.118       4.837       4.612       4.417       4.153       3.870       3.600       3.322       3.003       2.739    
        2.622       2.444       2.124       1.794       1.565       1.286       1.004      0.6784      0.3025       0.000    

 HEAD WILL BE SAVED ON UNIT   51 AT END OF TIME STEP  73, STRESS PERIOD    2

 DRAWDOWN WILL BE SAVED ON UNIT   52 AT END OF TIME STEP  73, STRESS PERIOD    2
1
  VOLUMETRIC BUDGET FOR ENTIRE MODEL AT END OF TIME STEP 73 IN STRESS PERIOD   2
  ------------------------------------------------------------------------------

     CUMULATIVE VOLUMES      L**3       RATES FOR THIS TIME STEP      L**3/T
     ------------------                 ------------------------

           IN:                                      IN:
           ---                                      ---
             STORAGE =       34640.2109               STORAGE =         417.2567
       CONSTANT HEAD =       45765.6562         CONSTANT HEAD =         664.4272
               WELLS =           0.0000                 WELLS =           0.0000

            TOTAL IN =       80405.8672              TOTAL IN =        1081.6840

          OUT:                                     OUT:
          ----                                     ----
             STORAGE =       9.4320E-03               STORAGE =           0.0000
       CONSTANT HEAD =       43905.8516         CONSTANT HEAD =         581.6841
               WELLS =       36500.0000                 WELLS =         500.0000

           TOTAL OUT =       80405.8594             TOTAL OUT =        1081.6841

            IN - OUT =       7.8125E-03              IN - OUT =      -1.2207E-04

 PERCENT DISCREPANCY =           0.00     PERCENT DISCREPANCY =           0.00






          TIME SUMMARY AT END OF TIME STEP  73 IN STRESS PERIOD    2
                    SECONDS     MINUTES      HOURS       DAYS        YEARS
                    -----------------------------------------------------------
   TIME STEP LENGTH  86400.      1440.0      24.000      1.0000     2.73785E-03
 STRESS PERIOD TIME 6.30720E+06 1.05120E+05  1752.0      73.000     0.19986    
         TOTAL TIME 6.39360E+06 1.06560E+05  1776.0      74.000     0.20260    
1
 
 SOLVING FOR HEAD 

 OUTPUT CONTROL FOR STRESS PERIOD    2   TIME STEP  74
    SAVE HEAD FOR ALL LAYERS
    SAVE DRAWDOWN FOR ALL LAYERS
    SAVE BUDGET
    PRINT HEAD FOR ALL LAYERS
    PRINT BUDGET
 UBDSV1 SAVING "         STORAGE" ON UNIT  53 AT TIME STEP 74, STRESS PERIOD   2
 UBDSV2 SAVING "   CONSTANT HEAD" ON UNIT  53 AT TIME STEP 74, STRESS PERIOD   2
 UBDSV1 SAVING "FLOW RIGHT FACE " ON UNIT  53 AT TIME STEP 74, STRESS PERIOD   2
 UBDSV1 SAVING "FLOW FRONT FACE " ON UNIT  53 AT TIME STEP 74, STRESS PERIOD   2
1
              HEAD IN LAYER   1 AT END OF TIME STEP  74 IN STRESS PERIOD    2
  ---------------------------------------------------------------------------

            1           2           3           4           5           6           7           8           9          10
           11          12          13          14          15          16          17          18          19          20
           21          22          23          24          25          26          27          28          29          30
           31          32          33          34          35          36          37          38          39          40
           41          42          43          44          45          46          47          48          49          50
 ........................................................................................................................
   1    10.00       9.955       9.890       9.817       9.746       9.664       9.588       9.512       9.417       9.323    
        9.251       9.180       9.107       9.037       8.923       8.787       8.634       8.514       8.452       8.380    
        8.295       8.228       8.162       8.086       7.986       7.789       7.566       7.412       7.261       7.120    
        6.936       6.642       6.266       5.849       5.416       4.957       4.502       4.123       3.629       3.092    
        2.651       2.230       1.763       1.372       1.131      0.9276      0.7665      0.6498      0.4362       0.000    
   2    10.00       9.954       9.895       9.821       9.749       9.677       9.601       9.501       9.397       9.320    
        9.257       9.197       9.136       9.049       8.919       8.776       8.632       8.513       8.450       8.370    
        8.284       8.233       8.180       8.101       7.973       7.780       7.578       7.419       7.267       7.129    
        6.924       6.616       6.221       5.745       5.284       4.839       4.446       4.080       3.577       3.057    
        2.615       2.142       1.717       1.410       1.184       1.010      0.8100      0.6324      0.3528       0.000    
   3    10.00       9.948       9.889       9.823       9.760       9.687       9.589       9.484       9.410       9.341    
        9.271       9.216       9.162       9.078       8.945       8.768       8.611       8.515       8.441       8.359    
        8.290       8.236       8.181       8.075       7.935       7.763       7.588       7.462       7.285       7.105    
        6.847       6.481       6.028       5.566       5.159       4.746       4.361       3.967       3.444       2.963    
        2.585       2.151       1.763       1.483       1.260       1.079      0.8425      0.5651      0.2562       0.000    
   4    10.00       9.947       9.890       9.826       9.754       9.670       9.569       9.488       9.424       9.353    
        9.292       9.246       9.186       9.091       8.961       8.772       8.609       8.519       8.436       8.363    
        8.288       8.221       8.151       8.039       7.900       7.745       7.586       7.431       7.273       7.068    
        6.743       6.256       5.774       5.424       5.087       4.662       4.200       3.738       3.321       2.960    
        2.607       2.206       1.842       1.591       1.340       1.110      0.8183      0.5081      0.2434       0.000    
   5    10.00       9.944       9.886       9.814       9.741       9.662       9.572       9.502       9.436       9.370    
        9.316       9.271       9.192       9.080       8.937       8.765       8.627       8.528       8.445       8.347    
        8.256       8.184       8.098       7.989       7.865       7.705       7.546       7.403       7.244       6.993    
        6.522       5.974       5.588       5.315       4.982       4.524       4.047       3.630       3.321       2.996    
        2.652       2.284       1.925       1.692       1.424       1.093      0.7446      0.4529      0.2278       0.000    
   6    10.00       9.936       9.867       9.807       9.741       9.655       9.578       9.519       9.449       9.387    
        9.336       9.281       9.182       9.055       8.929       8.785       8.646       8.531       8.421       8.306    
        8.215       8.130       8.055       7.957       7.798       7.640       7.513       7.367       7.145       6.761    
        6.239       5.741       5.420       5.186       4.885       4.432       3.960       3.613       3.353       3.060    
        2.749       2.427       2.062       1.750       1.394       1.030      0.6573      0.3906      0.2151       0.000    
   7    10.00       9.923       9.857       9.801       9.732       9.660       9.592       9.536       9.471       9.410    
        9.348       9.264       9.155       9.036       8.916       8.803       8.656       8.499       8.372       8.259    
        8.164       8.082       8.017       7.892       7.729       7.597       7.466       7.268       6.906       6.412    
        5.915       5.514       5.299       5.092       4.742       4.317       4.002       3.669       3.387       3.199    
        2.906       2.563       2.134       1.690       1.292      0.8939      0.5657      0.3932      0.2024       0.000    
   8    10.00       9.922       9.862       9.799       9.729       9.666       9.606       9.549       9.490       9.431    
        9.348       9.242       9.134       9.021       8.910       8.782       8.597       8.432       8.328       8.220    
        8.112       8.042       7.945       7.809       7.667       7.528       7.307       6.995       6.535       6.103    
        5.734       5.429       5.235       4.997       4.623       4.274       3.991       3.746       3.532       3.317    
        3.032       2.602       2.076       1.602       1.188      0.8361      0.5985      0.3849      0.1845       0.000    
   9    10.00       9.935       9.862       9.792       9.740       9.688       9.628       9.567       9.501       9.437    
        9.342       9.220       9.102       8.989       8.870       8.719       8.539       8.387       8.275       8.163    
        8.068       7.977       7.845       7.715       7.582       7.409       7.086       6.667       6.237       5.922    
        5.621       5.372       5.159       4.864       4.519       4.229       4.015       3.837       3.647       3.412    
        3.071       2.602       2.067       1.597       1.195      0.8539      0.6035      0.3880      0.1985       0.000    
  10    10.00       9.932       9.855       9.798       9.750       9.699       9.645       9.592       9.516       9.421    
        9.305       9.177       9.064       8.958       8.835       8.648       8.459       8.327       8.223       8.119    
        8.030       7.903       7.756       7.609       7.453       7.199       6.782       6.349       5.986       5.734    
        5.542       5.334       5.074       4.776       4.458       4.218       4.058       3.905       3.699       3.429    
        3.039       2.554       2.067       1.667       1.292      0.9387      0.6220      0.4120      0.2215       0.000    
  11    10.00       9.918       9.855       9.808       9.761       9.717       9.667       9.593       9.488       9.382    
        9.265       9.140       9.035       8.906       8.738       8.559       8.404       8.287       8.192       8.087    
        7.952       7.789       7.589       7.421       7.156       6.800       6.446       6.130       5.828       5.644    
        5.496       5.229       4.948       4.702       4.461       4.280       4.116       3.920       3.666       3.340    
        2.974       2.601       2.135       1.743       1.387       1.037      0.6983      0.4044      0.1697       0.000    
  12    10.00       9.920       9.862       9.812       9.772       9.727       9.669       9.565       9.443       9.341    
        9.232       9.101       8.973       8.819       8.671       8.506       8.356       8.256       8.150       8.003    
        7.777       7.533       7.296       7.060       6.706       6.438       6.241       5.932       5.684       5.549    
        5.382       5.132       4.903       4.677       4.507       4.335       4.129       3.891       3.583       3.258    
        2.949       2.614       2.166       1.781       1.448       1.082      0.7338      0.3810      0.1265       0.000    
  13    10.00       9.935       9.880       9.827       9.780       9.725       9.633       9.513       9.398       9.294    
        9.171       9.042       8.908       8.748       8.585       8.430       8.321       8.195       8.055       7.761    
        7.419       7.161       6.899       6.584       6.314       6.188       5.965       5.694       5.562       5.438    
        5.242       5.029       4.849       4.685       4.541       4.381       4.137       3.817       3.524       3.219    
        2.927       2.581       2.101       1.745       1.458       1.071      0.6733      0.3283      0.1005       0.000    
  14    10.00       9.950       9.903       9.846       9.780       9.690       9.569       9.449       9.345       9.230    
        9.103       8.983       8.831       8.663       8.518       8.384       8.216       8.051       7.771       7.334    
        7.006       6.756       6.409       6.164       6.040       5.926       5.707       5.541       5.412       5.283    
        5.115       4.965       4.840       4.701       4.546       4.390       4.115       3.770       3.469       3.156    
        2.859       2.430       1.975       1.696       1.371       1.023      0.6725      0.3033      8.6381E-02   0.000    
  15    10.00       9.960       9.910       9.848       9.768       9.636       9.490       9.384       9.287       9.172    
        9.073       8.948       8.753       8.561       8.427       8.216       8.003       7.830       7.399       6.923    
        6.629       6.296       6.004       5.914       5.851       5.707       5.521       5.367       5.268       5.170    
        5.044       4.937       4.836       4.714       4.564       4.375       4.054       3.673       3.358       3.076    
        2.759       2.329       1.973       1.626       1.241      0.9350      0.5998      0.2775      9.3873E-02   0.000    
  16    10.00       9.967       9.913       9.835       9.718       9.561       9.430       9.346       9.260       9.144    
        9.025       8.840       8.595       8.410       8.217       7.973       7.831       7.477       6.874       6.460    
        6.203       5.920       5.819       5.768       5.649       5.463       5.319       5.244       5.199       5.116    
        5.011       4.915       4.829       4.706       4.525       4.268       3.903       3.579       3.334       3.041    
        2.675       2.253       1.872       1.495       1.165      0.8266      0.5371      0.2797      9.9859E-02   0.000    
  17    10.00       9.962       9.897       9.793       9.659       9.497       9.381       9.307       9.204       9.081    
        8.866       8.607       8.402       8.212       7.963       7.720       7.421       6.858       6.360       6.104    
        5.904       5.757       5.687       5.565       5.381       5.249       5.208       5.187       5.143       5.060    
        4.969       4.885       4.795       4.670       4.408       4.074       3.795       3.588       3.354       3.002    
        2.541       2.131       1.778       1.425       1.043      0.6886      0.4571      0.2535      0.1056       0.000    
  18    10.00       9.946       9.863       9.741       9.565       9.428       9.346       9.236       9.110       8.925    
        8.651       8.435       8.243       7.954       7.629       7.295       6.877       6.390       6.088       5.894    
        5.744       5.617       5.502       5.337       5.211       5.172       5.156       5.134       5.075       4.996    
        4.920       4.836       4.722       4.528       4.259       3.994       3.780       3.612       3.319       2.886    
        2.444       2.018       1.663       1.332      0.9662      0.6343      0.3861      0.2117      9.8832E-02   0.000    
  19    10.00       9.927       9.831       9.654       9.478       9.398       9.294       9.151       8.998       8.787    
        8.543       8.330       8.022       7.609       7.272       6.945       6.499       6.107       5.917       5.791    
        5.633       5.472       5.342       5.205       5.138       5.120       5.098       5.054       4.983       4.915    
        4.841       4.750       4.600       4.406       4.191       3.971       3.790       3.576       3.159       2.734    
        2.385       1.951       1.567       1.246      0.8867      0.5711      0.3471      0.2008      0.1005       0.000    
  20    10.00       9.905       9.758       9.574       9.445       9.353       9.237       9.083       8.901       8.705    
        8.451       8.133       7.715       7.338       7.040       6.651       6.248       6.049       5.889       5.718    
        5.546       5.377       5.218       5.117       5.072       5.036       4.984       4.939       4.871       4.809    
        4.738       4.647       4.499       4.333       4.145       3.961       3.771       3.437       3.003       2.644    
        2.258       1.837       1.497       1.176      0.8425      0.5130      0.3015      0.2026      0.1023       0.000    
  21    10.00       9.850       9.699       9.548       9.413       9.309       9.182       8.985       8.799       8.609    
        8.279       7.879       7.488       7.179       6.860       6.488       6.202       6.028       5.846       5.658    
        5.449       5.257       5.117       5.014       4.937       4.869       4.827       4.786       4.715       4.668    
        4.620       4.526       4.403       4.264       4.099       3.925       3.658       3.323       2.949       2.525    
        2.138       1.744       1.450       1.156      0.7323      0.4334      0.3089      0.2255      0.1084       0.000    
  22    10.00       9.828       9.649       9.502       9.387       9.263       9.076       8.880       8.715       8.463    
        8.114       7.698       7.361       7.105       6.756       6.414       6.173       5.994       5.813       5.587    
        5.346       5.151       4.970       4.810       4.706       4.657       4.624       4.569       4.545       4.518    
        4.483       4.412       4.323       4.196       4.047       3.879       3.603       3.273       2.834       2.417    
        2.084       1.726       1.401      0.9647      0.6036      0.4347      0.3270      0.2175      8.6433E-02   0.000    
  23    10.00       9.789       9.615       9.493       9.366       9.181       8.970       8.817       8.607       8.346    
        7.991       7.621       7.362       7.037       6.662       6.364       6.161       5.997       5.792       5.521    
        5.264       5.034       4.794       4.509       4.256       4.206       4.279       4.314       4.363       4.380    
        4.366       4.321       4.245       4.145       4.003       3.829       3.574       3.164       2.704       2.362    
        2.043       1.637       1.169      0.7896      0.5893      0.4463      0.3267      0.2074      9.6593E-02   0.000    
  24    10.00       9.760       9.633       9.493       9.314       9.109       8.944       8.777       8.572       8.271    
        7.945       7.658       7.372       6.982       6.585       6.350       6.181       6.011       5.763       5.490    
        5.235       4.971       4.603       3.947       2.958       3.289       3.741       4.026       4.179       4.242    
        4.261       4.235       4.185       4.083       3.947       3.771       3.455       3.023       2.635       2.272    
        1.884       1.453       1.039      0.7545      0.5871      0.4442      0.3195      0.2422      0.1333       0.000    
  25    10.00       9.790       9.657       9.487       9.299       9.116       8.947       8.788       8.537       8.238    
        7.965       7.688       7.339       6.912       6.604       6.389       6.201       6.000       5.770       5.516    
        5.240       4.977       4.307       2.909     -0.2606       2.309       3.281       3.768       4.028       4.146    
        4.182       4.173       4.122       4.004       3.861       3.646       3.319       2.905       2.554       2.162    
        1.715       1.308      0.9693      0.7479      0.6114      0.4781      0.3495      0.2576      0.1682       0.000    
  26    10.00       9.821       9.695       9.512       9.319       9.159       8.983       8.783       8.527       8.294    
        8.058       7.691       7.251       6.887       6.663       6.469       6.245       5.985       5.740       5.523    
        5.310       5.021       4.402       3.386       2.319       2.839       3.402       3.757       3.976       4.104    
        4.137       4.125       4.058       3.943       3.805       3.573       3.145       2.762       2.465       1.985    
        1.498       1.161      0.9613      0.8121      0.6667      0.5188      0.3848      0.2819      0.1684       0.000    
  27    10.00       9.860       9.707       9.552       9.379       9.194       9.020       8.827       8.598       8.376    
        8.061       7.629       7.248       6.952       6.754       6.536       6.243       5.957       5.757       5.584    
        5.406       5.107       4.642       4.081       3.484       3.501       3.699       3.885       4.027       4.103    
        4.120       4.099       4.032       3.914       3.727       3.363       2.958       2.655       2.196       1.721    
        1.370       1.148       1.002      0.8759      0.7420      0.5714      0.4116      0.3081      0.2071       0.000    
  28    10.00       9.873       9.744       9.595       9.439       9.265       9.085       8.891       8.676       8.419    
        8.036       7.644       7.313       7.029       6.824       6.603       6.352       6.071       5.806       5.633    
        5.473       5.259       4.949       4.528       4.149       3.979       3.989       4.074       4.111       4.136    
        4.126       4.090       4.009       3.841       3.561       3.178       2.829       2.413       1.956       1.638    
        1.379       1.196       1.051      0.9260      0.7882      0.6249      0.4666      0.3507      0.2138       0.000    
  29    10.00       9.879       9.756       9.646       9.496       9.337       9.164       8.970       8.742       8.401    
        8.024       7.682       7.369       7.134       6.898       6.660       6.431       6.205       5.947       5.723    
        5.551       5.370       5.156       4.897       4.552       4.367       4.296       4.266       4.247       4.206    
        4.151       4.073       3.968       3.738       3.397       3.045       2.676       2.252       1.900       1.667    
        1.455       1.252       1.094      0.9714      0.8371      0.6697      0.5065      0.3709      0.2162       0.000    
  30    10.00       9.890       9.789       9.691       9.562       9.415       9.262       9.047       8.764       8.417    
        8.030       7.683       7.422       7.190       6.959       6.728       6.536       6.342       6.109       5.868    
        5.662       5.495       5.309       5.122       4.901       4.700       4.618       4.488       4.411       4.302    
        4.177       4.043       3.883       3.636       3.348       3.009       2.623       2.228       1.967       1.751    
        1.510       1.310       1.158       1.011      0.8600      0.7116      0.5403      0.3870      0.2338       0.000    
  31    10.00       9.909       9.822       9.731       9.637       9.522       9.356       9.104       8.778       8.418    
        8.046       7.723       7.476       7.240       7.033       6.820       6.618       6.470       6.245       6.014    
        5.816       5.642       5.478       5.307       5.165       5.005       4.847       4.699       4.544       4.385    
        4.196       4.008       3.836       3.630       3.340       2.982       2.610       2.280       2.066       1.871    
        1.621       1.390       1.211       1.056      0.9057      0.7482      0.5761      0.4140      0.2279       0.000    
  32    10.00       9.923       9.857       9.778       9.687       9.584       9.420       9.136       8.833       8.505    
        8.113       7.778       7.532       7.310       7.103       6.924       6.745       6.557       6.376       6.155    
        5.947       5.758       5.597       5.438       5.308       5.196       5.020       4.846       4.643       4.426    
        4.220       4.026       3.833       3.630       3.352       3.026       2.712       2.420       2.190       1.971    
        1.738       1.497       1.305       1.123      0.9501      0.8070      0.6304      0.4155      0.2065       0.000    
  33    10.00       9.934       9.880       9.817       9.729       9.612       9.406       9.133       8.879       8.578    
        8.198       7.867       7.613       7.373       7.181       7.027       6.869       6.682       6.480       6.279    
        6.061       5.858       5.671       5.515       5.409       5.297       5.128       4.915       4.705       4.496    
        4.288       4.103       3.904       3.642       3.377       3.079       2.808       2.573       2.334       2.094    
        1.876       1.647       1.435       1.244       1.050      0.8796      0.6807      0.4265      0.2010       0.000    
  34    10.00       9.941       9.905       9.850       9.742       9.584       9.386       9.184       8.925       8.600    
        8.267       7.946       7.676       7.438       7.265       7.142       6.974       6.787       6.568       6.378    
        6.180       5.943       5.755       5.610       5.502       5.372       5.178       4.987       4.768       4.539    
        4.364       4.193       4.013       3.753       3.473       3.197       2.948       2.736       2.488       2.245    
        2.035       1.823       1.598       1.402       1.195      0.9940      0.7395      0.4754      0.2506       0.000    
  35    10.00       9.951       9.910       9.842       9.710       9.543       9.399       9.229       8.992       8.645    
        8.292       7.998       7.728       7.521       7.370       7.233       7.060       6.855       6.645       6.435    
        6.253       6.043       5.852       5.715       5.599       5.470       5.261       5.028       4.796       4.579    
        4.445       4.286       4.090       3.891       3.648       3.351       3.095       2.921       2.667       2.390    
        2.191       1.978       1.763       1.570       1.338       1.113      0.8556      0.5712      0.2855       0.000    
  36    10.00       9.949       9.891       9.815       9.684       9.527       9.398       9.241       9.005       8.684    
        8.319       8.002       7.799       7.631       7.489       7.322       7.116       6.918       6.697       6.443    
        6.251       6.085       5.920       5.802       5.687       5.532       5.314       5.071       4.834       4.630    
        4.494       4.360       4.174       3.982       3.773       3.502       3.241       3.045       2.821       2.521    
        2.296       2.081       1.862       1.701       1.477       1.227      0.9691      0.6715      0.3416       0.000    
  37    10.00       9.934       9.871       9.788       9.657       9.514       9.370       9.219       9.005       8.661    
        8.294       8.032       7.904       7.745       7.561       7.395       7.164       6.927       6.664       6.413    
        6.258       6.126       5.971       5.850       5.718       5.538       5.335       5.087       4.874       4.712    
        4.564       4.413       4.221       4.051       3.831       3.571       3.363       3.172       2.922       2.623    
        2.353       2.142       1.966       1.786       1.574       1.340       1.093      0.7588      0.4112       0.000    
  38    10.00       9.927       9.846       9.758       9.638       9.499       9.341       9.184       8.958       8.641    
        8.360       8.148       7.983       7.841       7.638       7.389       7.133       6.855       6.576       6.409    
        6.287       6.131       5.989       5.882       5.742       5.542       5.299       5.073       4.940       4.805    
        4.642       4.469       4.281       4.106       3.891       3.648       3.459       3.265       2.967       2.654    
        2.418       2.222       2.043       1.862       1.672       1.446       1.190      0.8688      0.4509       0.000    
  39    10.00       9.908       9.827       9.740       9.622       9.468       9.298       9.134       8.929       8.674    
        8.454       8.295       8.113       7.913       7.629       7.312       7.000       6.706       6.534       6.422    
        6.264       6.100       5.996       5.897       5.768       5.539       5.291       5.131       5.010       4.870    
        4.697       4.529       4.337       4.148       3.963       3.759       3.541       3.314       3.006       2.696    
        2.448       2.250       2.111       1.966       1.760       1.529       1.271      0.9211      0.4512       0.000    
  40    10.00       9.893       9.814       9.727       9.609       9.449       9.275       9.109       8.935       8.723    
        8.543       8.407       8.187       7.877       7.521       7.169       6.854       6.649       6.531       6.403    
        6.232       6.088       5.993       5.881       5.731       5.548       5.374       5.208       5.063       4.933    
        4.773       4.584       4.387       4.207       4.034       3.827       3.592       3.362       3.027       2.688    
        2.463       2.298       2.152       2.027       1.819       1.562       1.324      0.9573      0.4727       0.000    
  41    10.00       9.901       9.809       9.713       9.584       9.438       9.287       9.139       8.972       8.783    
        8.612       8.451       8.162       7.773       7.381       7.062       6.811       6.634       6.514       6.370    
        6.199       6.075       5.973       5.854       5.720       5.583       5.452       5.294       5.121       4.970    
        4.825       4.643       4.443       4.277       4.095       3.893       3.652       3.331       2.959       2.698    
        2.514       2.342       2.207       2.050       1.830       1.575       1.365       1.016      0.5204       0.000    
  42    10.00       9.905       9.803       9.715       9.602       9.466       9.315       9.151       9.002       8.858    
        8.657       8.374       8.014       7.615       7.262       7.015       6.797       6.630       6.492       6.321    
        6.163       6.050       5.947       5.859       5.742       5.640       5.517       5.338       5.154       5.018    
        4.887       4.690       4.474       4.318       4.162       3.935       3.625       3.242       2.910       2.710    
        2.564       2.417       2.250       2.046       1.817       1.612       1.400       1.058      0.5446       0.000    
  43    10.00       9.906       9.813       9.723       9.634       9.514       9.363       9.202       9.041       8.838    
        8.556       8.232       7.864       7.479       7.204       6.996       6.791       6.619       6.453       6.284    
        6.136       6.029       5.951       5.882       5.779       5.666       5.548       5.373       5.208       5.095    
        4.930       4.712       4.509       4.355       4.175       3.898       3.534       3.164       2.932       2.774    
        2.618       2.460       2.256       2.036       1.827       1.628       1.438       1.055      0.4754       0.000    
  44    10.00       9.901       9.815       9.738       9.640       9.548       9.421       9.226       9.012       8.735    
        8.450       8.109       7.707       7.427       7.213       6.984       6.761       6.567       6.387       6.237    
        6.130       6.043       5.968       5.896       5.808       5.694       5.555       5.416       5.287       5.144    
        4.986       4.789       4.559       4.341       4.131       3.848       3.468       3.147       2.961       2.808    
        2.659       2.484       2.279       2.083       1.864       1.644       1.395      0.9036      0.3994       0.000    
  45    10.00       9.901       9.831       9.741       9.649       9.568       9.385       9.164       8.914       8.641    
        8.401       7.994       7.619       7.409       7.193       6.944       6.693       6.494       6.336       6.227    
        6.149       6.072       5.993       5.907       5.812       5.708       5.591       5.473       5.367       5.221    
        5.031       4.821       4.588       4.325       4.086       3.777       3.420       3.167       3.014       2.860    
        2.667       2.465       2.285       2.108       1.916       1.679       1.258      0.7577      0.3838       0.000    
  46    10.00       9.918       9.843       9.749       9.648       9.495       9.303       9.121       8.892       8.625    
        8.280       7.906       7.605       7.343       7.122       6.877       6.627       6.471       6.352       6.251    
        6.179       6.108       6.015       5.911       5.817       5.725       5.629       5.524       5.418       5.285    
        5.108       4.888       4.629       4.332       3.999       3.667       3.406       3.233       3.062       2.885    
        2.663       2.452       2.273       2.130       1.925       1.594       1.128      0.7139      0.3628       0.000    
  47    10.00       9.936       9.867       9.769       9.594       9.410       9.246       9.090       8.886       8.552    
        8.181       7.833       7.544       7.324       7.087       6.815       6.600       6.461       6.367       6.283    
        6.206       6.124       6.032       5.931       5.837       5.757       5.672       5.567       5.446       5.313    
        5.157       4.963       4.630       4.236       3.922       3.677       3.449       3.301       3.144       2.898    
        2.633       2.411       2.244       2.128       1.870       1.475       1.048      0.6872      0.3528       0.000    
  48    10.00       9.944       9.871       9.724       9.548       9.395       9.220       9.063       8.845       8.494    
        8.090       7.774       7.540       7.277       7.002       6.758       6.596       6.461       6.370       6.308    
        6.232       6.133       6.032       5.944       5.868       5.800       5.719       5.603       5.460       5.306    
        5.144       4.922       4.578       4.254       3.979       3.735       3.522       3.354       3.152       2.858    
        2.577       2.398       2.259       2.041       1.697       1.343       1.001      0.6923      0.3725       0.000    
  49    10.00       9.941       9.837       9.706       9.562       9.384       9.208       9.031       8.762       8.391    
        8.042       7.747       7.464       7.215       7.003       6.774       6.564       6.442       6.382       6.322    
        6.251       6.139       6.027       5.953       5.891       5.838       5.747       5.607       5.445       5.298    
        5.129       4.857       4.565       4.348       4.097       3.811       3.553       3.350       3.117       2.803    
        2.575       2.419       2.211       1.883       1.576       1.287      0.9897      0.6924      0.3713       0.000    
  50    10.00       9.933       9.825       9.691       9.561       9.395       9.198       8.978       8.694       8.400    
        8.036       7.666       7.404       7.206       7.026       6.768       6.536       6.444       6.391       6.331    
        6.259       6.144       6.029       5.958       5.906       5.856       5.753       5.594       5.429       5.289    
        5.115       4.835       4.610       4.415       4.152       3.868       3.599       3.320       3.002       2.738    
        2.621       2.443       2.123       1.793       1.565       1.285       1.004      0.6782      0.3024       0.000    

 HEAD WILL BE SAVED ON UNIT   51 AT END OF TIME STEP  74, STRESS PERIOD    2

 DRAWDOWN WILL BE SAVED ON UNIT   52 AT END OF TIME STEP  74, STRESS PERIOD    2
1
  VOLUMETRIC BUDGET FOR ENTIRE MODEL AT END OF TIME STEP 74 IN STRESS PERIOD   2
  ------------------------------------------------------------------------------

     CUMULATIVE VOLUMES      L**3       RATES FOR THIS TIME STEP      L**3/T
     ------------------                 ------------------------

           IN:                                      IN:
           ---                                      ---
             STORAGE =       35055.3320               STORAGE =         415.1211
       CONSTANT HEAD =       46431.6602         CONSTANT HEAD =         666.0031
               WELLS =           0.0000                 WELLS =           0.0000

            TOTAL IN =       81486.9922              TOTAL IN =        1081.1241

          OUT:                                     OUT:
          ----                                     ----
             STORAGE =       9.4320E-03               STORAGE =           0.0000
       CONSTANT HEAD =       44486.9766         CONSTANT HEAD =         581.1246
               WELLS =       37000.0000                 WELLS =         500.0000

           TOTAL OUT =       81486.9844             TOTAL OUT =        1081.1245

            IN - OUT =       7.8125E-03              IN - OUT =      -3.6621E-04

 PERCENT DISCREPANCY =           0.00     PERCENT DISCREPANCY =           0.00






          TIME SUMMARY AT END OF TIME STEP  74 IN STRESS PERIOD    2
                    SECONDS     MINUTES      HOURS       DAYS        YEARS
                    -----------------------------------------------------------
   TIME STEP LENGTH  86400.      1440.0      24.000      1.0000     2.73785E-03
 STRESS PERIOD TIME 6.39360E+06 1.06560E+05  1776.0      74.000     0.20260    
         TOTAL TIME 6.48000E+06 1.08000E+05  1800.0      75.000     0.20534    
1
 
 SOLVING FOR HEAD 

 OUTPUT CONTROL FOR STRESS PERIOD    2   TIME STEP  75
    SAVE HEAD FOR ALL LAYERS
    SAVE DRAWDOWN FOR ALL LAYERS
    SAVE BUDGET
    PRINT HEAD FOR ALL LAYERS
    PRINT BUDGET
 UBDSV1 SAVING "         STORAGE" ON UNIT  53 AT TIME STEP 75, STRESS PERIOD   2
 UBDSV2 SAVING "   CONSTANT HEAD" ON UNIT  53 AT TIME STEP 75, STRESS PERIOD   2
 UBDSV1 SAVING "FLOW RIGHT FACE " ON UNIT  53 AT TIME STEP 75, STRESS PERIOD   2
 UBDSV1 SAVING "FLOW FRONT FACE " ON UNIT  53 AT TIME STEP 75, STRESS PERIOD   2
1
              HEAD IN LAYER   1 AT END OF TIME STEP  75 IN STRESS PERIOD    2
  ---------------------------------------------------------------------------

            1           2           3           4           5           6           7           8           9          10
           11          12          13          14          15          16          17          18          19          20
           21          22          23          24          25          26          27          28          29          30
           31          32          33          34          35          36          37          38          39          40
           41          42          43          44          45          46          47          48          49          50
 ........................................................................................................................
   1    10.00       9.955       9.890       9.816       9.745       9.664       9.587       9.511       9.415       9.322    
        9.249       9.178       9.105       9.035       8.921       8.784       8.631       8.511       8.449       8.377    
        8.292       8.224       8.158       8.082       7.982       7.785       7.562       7.407       7.257       7.115    
        6.932       6.638       6.262       5.845       5.413       4.953       4.498       4.120       3.627       3.089    
        2.649       2.228       1.761       1.370       1.130      0.9267      0.7657      0.6492      0.4358       0.000    
   2    10.00       9.954       9.895       9.821       9.748       9.676       9.600       9.500       9.395       9.318    
        9.256       9.195       9.134       9.047       8.916       8.773       8.629       8.510       8.447       8.366    
        8.281       8.230       8.176       8.097       7.969       7.776       7.574       7.415       7.263       7.125    
        6.920       6.612       6.217       5.741       5.280       4.836       4.442       4.076       3.574       3.054    
        2.613       2.140       1.715       1.409       1.183       1.009      0.8093      0.6318      0.3525       0.000    
   3    10.00       9.947       9.889       9.823       9.759       9.686       9.588       9.483       9.409       9.339    
        9.269       9.214       9.160       9.076       8.942       8.765       8.608       8.512       8.437       8.356    
        8.286       8.233       8.177       8.071       7.931       7.759       7.583       7.458       7.280       7.101    
        6.842       6.476       6.024       5.562       5.155       4.742       4.357       3.964       3.441       2.961    
        2.583       2.149       1.761       1.482       1.258       1.078      0.8417      0.5645      0.2560       0.000    
   4    10.00       9.947       9.890       9.826       9.753       9.669       9.568       9.487       9.423       9.352    
        9.290       9.244       9.184       9.088       8.958       8.770       8.606       8.516       8.432       8.359    
        8.284       8.217       8.147       8.035       7.896       7.741       7.582       7.426       7.268       7.064    
        6.738       6.252       5.769       5.419       5.083       4.658       4.196       3.735       3.318       2.957    
        2.605       2.204       1.841       1.589       1.339       1.109      0.8175      0.5076      0.2432       0.000    
   5    10.00       9.944       9.886       9.813       9.740       9.661       9.570       9.501       9.435       9.368    
        9.315       9.269       9.190       9.078       8.934       8.762       8.624       8.525       8.442       8.343    
        8.252       8.180       8.094       7.985       7.861       7.701       7.542       7.398       7.240       6.988    
        6.517       5.969       5.583       5.310       4.978       4.520       4.043       3.626       3.317       2.993    
        2.649       2.282       1.923       1.691       1.422       1.091      0.7439      0.4524      0.2276       0.000    
   6    10.00       9.936       9.867       9.807       9.740       9.654       9.577       9.518       9.448       9.385    
        9.334       9.279       9.180       9.053       8.927       8.783       8.643       8.528       8.418       8.303    
        8.211       8.126       8.051       7.952       7.794       7.636       7.508       7.362       7.140       6.756    
        6.234       5.735       5.415       5.181       4.880       4.427       3.956       3.609       3.349       3.057    
        2.746       2.425       2.060       1.748       1.393       1.029      0.6566      0.3902      0.2148       0.000    
   7    10.00       9.923       9.856       9.800       9.731       9.660       9.591       9.534       9.470       9.408    
        9.346       9.262       9.153       9.034       8.914       8.800       8.653       8.496       8.368       8.256    
        8.160       8.077       8.013       7.887       7.725       7.592       7.462       7.263       6.900       6.407    
        5.910       5.508       5.294       5.086       4.737       4.312       3.997       3.664       3.383       3.195    
        2.903       2.560       2.132       1.688       1.291      0.8930      0.5651      0.3928      0.2022       0.000    
   8    10.00       9.922       9.862       9.798       9.729       9.665       9.605       9.548       9.489       9.429    
        9.347       9.240       9.132       9.018       8.907       8.779       8.594       8.429       8.324       8.216    
        8.108       8.038       7.940       7.805       7.662       7.523       7.301       6.990       6.529       6.097    
        5.728       5.423       5.229       4.991       4.618       4.269       3.986       3.741       3.527       3.313    
        3.029       2.599       2.074       1.600       1.187      0.8352      0.5978      0.3845      0.1843       0.000    
   9    10.00       9.935       9.861       9.791       9.740       9.687       9.627       9.566       9.500       9.436    
        9.340       9.218       9.100       8.986       8.868       8.716       8.535       8.383       8.271       8.159    
        8.064       7.973       7.840       7.710       7.577       7.404       7.080       6.661       6.230       5.916    
        5.614       5.366       5.153       4.857       4.513       4.223       4.009       3.832       3.642       3.408    
        3.067       2.599       2.064       1.595       1.194      0.8529      0.6028      0.3876      0.1982       0.000    
  10    10.00       9.932       9.854       9.797       9.749       9.698       9.644       9.591       9.515       9.420    
        9.303       9.175       9.061       8.955       8.832       8.644       8.455       8.322       8.219       8.115    
        8.026       7.898       7.751       7.604       7.447       7.193       6.776       6.342       5.979       5.727    
        5.534       5.327       5.067       4.769       4.452       4.212       4.053       3.900       3.694       3.425    
        3.035       2.551       2.064       1.665       1.290      0.9376      0.6213      0.4115      0.2212       0.000    
  11    10.00       9.917       9.854       9.807       9.760       9.716       9.666       9.592       9.487       9.380    
        9.263       9.137       9.032       8.903       8.735       8.555       8.400       8.282       8.188       8.082    
        7.948       7.784       7.583       7.415       7.150       6.793       6.439       6.122       5.820       5.636    
        5.488       5.221       4.940       4.695       4.454       4.274       4.110       3.915       3.661       3.335    
        2.969       2.597       2.132       1.741       1.385       1.036      0.6974      0.4039      0.1695       0.000    
  12    10.00       9.920       9.862       9.812       9.772       9.726       9.668       9.564       9.442       9.339    
        9.230       9.098       8.970       8.816       8.668       8.502       8.352       8.251       8.145       7.998    
        7.772       7.527       7.290       7.053       6.699       6.430       6.233       5.923       5.676       5.541    
        5.374       5.124       4.895       4.670       4.500       4.328       4.123       3.885       3.578       3.253    
        2.945       2.610       2.163       1.779       1.446       1.081      0.7328      0.3806      0.1263       0.000    
  13    10.00       9.935       9.880       9.827       9.779       9.725       9.632       9.512       9.396       9.292    
        9.168       9.039       8.905       8.745       8.582       8.426       8.316       8.190       8.050       7.756    
        7.413       7.154       6.892       6.576       6.306       6.179       5.957       5.685       5.553       5.429    
        5.233       5.021       4.841       4.677       4.533       4.374       4.130       3.811       3.519       3.214    
        2.923       2.577       2.098       1.742       1.456       1.070      0.6724      0.3279      0.1004       0.000    
  14    10.00       9.950       9.902       9.846       9.779       9.689       9.568       9.448       9.343       9.228    
        9.100       8.980       8.828       8.659       8.514       8.379       8.211       8.046       7.765       7.327    
        6.998       6.748       6.400       6.154       6.031       5.917       5.697       5.531       5.403       5.274    
        5.105       4.957       4.832       4.693       4.539       4.383       4.108       3.763       3.463       3.151    
        2.855       2.426       1.972       1.694       1.369       1.022      0.6715      0.3028      8.6258E-02   0.000    
  15    10.00       9.960       9.910       9.847       9.767       9.635       9.488       9.382       9.284       9.169    
        9.070       8.945       8.749       8.556       8.422       8.211       7.997       7.823       7.392       6.915    
        6.620       6.286       5.994       5.905       5.841       5.697       5.511       5.357       5.258       5.160    
        5.034       4.928       4.827       4.705       4.555       4.367       4.046       3.666       3.352       3.071    
        2.755       2.325       1.970       1.623       1.239      0.9336      0.5989      0.2770      9.3732E-02   0.000    
  16    10.00       9.967       9.913       9.835       9.717       9.560       9.428       9.343       9.257       9.141    
        9.021       8.836       8.591       8.405       8.211       7.967       7.824       7.470       6.866       6.451    
        6.193       5.910       5.808       5.758       5.639       5.452       5.308       5.233       5.189       5.106    
        5.001       4.905       4.820       4.697       4.516       4.260       3.895       3.572       3.328       3.035    
        2.670       2.250       1.869       1.492       1.163      0.8253      0.5362      0.2792      9.9703E-02   0.000    
  17    10.00       9.962       9.897       9.792       9.658       9.495       9.379       9.305       9.201       9.078    
        8.862       8.602       8.397       8.207       7.957       7.713       7.413       6.849       6.350       6.094    
        5.894       5.747       5.676       5.554       5.370       5.238       5.198       5.177       5.133       5.049    
        4.959       4.875       4.785       4.661       4.399       4.066       3.787       3.581       3.348       2.996    
        2.537       2.127       1.774       1.422       1.041      0.6875      0.4564      0.2531      0.1055       0.000    
  18    10.00       9.945       9.862       9.740       9.563       9.426       9.344       9.233       9.107       8.921    
        8.646       8.430       8.237       7.947       7.621       7.286       6.867       6.380       6.078       5.883    
        5.733       5.606       5.491       5.326       5.200       5.161       5.145       5.123       5.065       4.985    
        4.910       4.826       4.712       4.519       4.250       3.986       3.772       3.605       3.312       2.880    
        2.440       2.014       1.660       1.330      0.9645      0.6333      0.3854      0.2113      9.8668E-02   0.000    
  19    10.00       9.927       9.830       9.653       9.476       9.396       9.291       9.148       8.994       8.782    
        8.538       8.325       8.015       7.601       7.263       6.936       6.489       6.096       5.906       5.780    
        5.622       5.460       5.331       5.193       5.127       5.108       5.086       5.043       4.972       4.904    
        4.831       4.739       4.590       4.396       4.182       3.962       3.782       3.568       3.152       2.728    
        2.380       1.947       1.565       1.244      0.8851      0.5701      0.3465      0.2005      0.1004       0.000    
  20    10.00       9.905       9.757       9.573       9.443       9.350       9.234       9.080       8.896       8.700    
        8.445       8.127       7.707       7.329       7.031       6.641       6.237       6.038       5.878       5.707    
        5.535       5.366       5.207       5.106       5.061       5.024       4.973       4.927       4.859       4.798    
        4.727       4.636       4.489       4.323       4.135       3.952       3.762       3.429       2.996       2.638    
        2.254       1.833       1.495       1.174      0.8410      0.5121      0.3010      0.2022      0.1022       0.000    
  21    10.00       9.850       9.697       9.546       9.410       9.306       9.178       8.981       8.795       8.604    
        8.272       7.871       7.480       7.170       6.851       6.478       6.191       6.017       5.834       5.647    
        5.437       5.245       5.105       5.002       4.925       4.857       4.816       4.774       4.703       4.657    
        4.609       4.514       4.392       4.253       4.089       3.915       3.649       3.315       2.943       2.520    
        2.134       1.740       1.448       1.154      0.7310      0.4327      0.3084      0.2251      0.1082       0.000    
  22    10.00       9.827       9.648       9.500       9.385       9.260       9.072       8.876       8.710       8.457    
        8.108       7.690       7.353       7.096       6.746       6.403       6.162       5.983       5.801       5.575    
        5.334       5.139       4.958       4.798       4.695       4.645       4.612       4.557       4.534       4.507    
        4.471       4.401       4.311       4.185       4.037       3.869       3.594       3.265       2.828       2.412    
        2.079       1.723       1.398      0.9630      0.6026      0.4339      0.3264      0.2172      8.6292E-02   0.000    
  23    10.00       9.788       9.613       9.490       9.364       9.177       8.966       8.812       8.602       8.340    
        7.984       7.613       7.353       7.028       6.652       6.354       6.150       5.986       5.781       5.509    
        5.252       5.023       4.782       4.497       4.244       4.194       4.267       4.302       4.351       4.368    
        4.354       4.309       4.234       4.134       3.993       3.819       3.565       3.156       2.698       2.357    
        2.039       1.633       1.167      0.7882      0.5883      0.4456      0.3262      0.2071      9.6441E-02   0.000    
  24    10.00       9.759       9.632       9.490       9.311       9.106       8.939       8.772       8.566       8.264    
        7.938       7.650       7.363       6.972       6.575       6.339       6.170       6.000       5.752       5.478    
        5.223       4.959       4.591       3.935       2.946       3.277       3.728       4.014       4.167       4.230    
        4.249       4.223       4.174       4.072       3.936       3.761       3.446       3.016       2.629       2.267    
        1.880       1.451       1.037      0.7532      0.5862      0.4435      0.3190      0.2418      0.1331       0.000    
  25    10.00       9.790       9.655       9.485       9.296       9.113       8.943       8.784       8.532       8.232    
        7.958       7.680       7.330       6.902       6.594       6.378       6.190       5.989       5.758       5.505    
        5.228       4.965       4.295       2.896     -0.2743       2.296       3.268       3.755       4.015       4.134    
        4.169       4.161       4.110       3.993       3.850       3.636       3.310       2.898       2.548       2.157    
        1.711       1.306      0.9677      0.7467      0.6104      0.4774      0.3490      0.2572      0.1679       0.000    
  26    10.00       9.820       9.693       9.510       9.316       9.155       8.979       8.779       8.521       8.288    
        8.051       7.683       7.242       6.877       6.653       6.458       6.234       5.973       5.729       5.511    
        5.298       5.009       4.389       3.374       2.306       2.826       3.389       3.744       3.964       4.091    
        4.125       4.113       4.046       3.932       3.794       3.563       3.137       2.755       2.460       1.981    
        1.495       1.159      0.9598      0.8109      0.6657      0.5181      0.3843      0.2815      0.1681       0.000    
  27    10.00       9.860       9.706       9.550       9.377       9.191       9.017       8.823       8.593       8.370    
        8.055       7.621       7.239       6.943       6.744       6.526       6.232       5.946       5.746       5.573    
        5.394       5.095       4.630       4.069       3.471       3.489       3.687       3.872       4.014       4.091    
        4.107       4.087       4.020       3.903       3.716       3.354       2.951       2.649       2.191       1.718    
        1.367       1.147       1.001      0.8747      0.7409      0.5706      0.4110      0.3077      0.2068       0.000    
  28    10.00       9.872       9.743       9.594       9.437       9.262       9.082       8.887       8.671       8.414    
        8.029       7.636       7.305       7.020       6.814       6.593       6.342       6.060       5.794       5.622    
        5.462       5.247       4.937       4.516       4.137       3.966       3.976       4.062       4.098       4.124    
        4.114       4.078       3.998       3.830       3.552       3.170       2.823       2.408       1.953       1.635    
        1.377       1.195       1.050      0.9247      0.7871      0.6240      0.4660      0.3502      0.2135       0.000    
  29    10.00       9.879       9.756       9.645       9.494       9.334       9.161       8.966       8.738       8.395    
        8.017       7.674       7.361       7.125       6.888       6.650       6.420       6.195       5.937       5.712    
        5.540       5.359       5.144       4.885       4.540       4.355       4.284       4.253       4.235       4.194    
        4.140       4.062       3.957       3.729       3.389       3.039       2.671       2.248       1.897       1.664    
        1.453       1.251       1.092      0.9701      0.8360      0.6688      0.5058      0.3704      0.2160       0.000    
  30    10.00       9.890       9.788       9.690       9.560       9.413       9.259       9.043       8.760       8.412    
        8.023       7.676       7.413       7.181       6.949       6.718       6.526       6.331       6.098       5.857    
        5.651       5.484       5.298       5.110       4.889       4.688       4.605       4.476       4.399       4.290    
        4.166       4.033       3.874       3.628       3.342       3.003       2.619       2.225       1.964       1.748    
        1.507       1.309       1.156       1.010      0.8589      0.7107      0.5396      0.3865      0.2335       0.000    
  31    10.00       9.909       9.821       9.730       9.636       9.520       9.353       9.101       8.774       8.413    
        8.040       7.716       7.468       7.231       7.025       6.811       6.609       6.460       6.235       6.003    
        5.805       5.631       5.467       5.295       5.154       4.994       4.836       4.688       4.533       4.374    
        4.187       3.999       3.829       3.623       3.334       2.977       2.606       2.277       2.063       1.868    
        1.618       1.388       1.210       1.055      0.9046      0.7473      0.5754      0.4135      0.2276       0.000    
  32    10.00       9.923       9.856       9.777       9.686       9.582       9.418       9.134       8.829       8.501    
        8.107       7.771       7.524       7.302       7.095       6.915       6.736       6.548       6.366       6.145    
        5.936       5.747       5.587       5.428       5.297       5.185       5.009       4.835       4.633       4.417    
        4.212       4.018       3.826       3.624       3.347       3.021       2.708       2.416       2.187       1.968    
        1.736       1.495       1.304       1.122      0.9490      0.8061      0.6297      0.4151      0.2063       0.000    
  33    10.00       9.934       9.880       9.816       9.728       9.611       9.404       9.130       8.875       8.573    
        8.192       7.860       7.606       7.365       7.173       7.019       6.860       6.673       6.471       6.269    
        6.050       5.848       5.660       5.505       5.399       5.286       5.118       4.906       4.696       4.488    
        4.281       4.097       3.897       3.636       3.372       3.074       2.805       2.569       2.331       2.092    
        1.874       1.645       1.434       1.242       1.049      0.8787      0.6801      0.4261      0.2008       0.000    
  34    10.00       9.941       9.904       9.849       9.742       9.582       9.384       9.182       8.921       8.595    
        8.262       7.940       7.669       7.431       7.257       7.134       6.966       6.778       6.559       6.369    
        6.171       5.933       5.745       5.600       5.493       5.362       5.169       4.978       4.760       4.532    
        4.358       4.187       4.007       3.748       3.469       3.193       2.944       2.733       2.486       2.243    
        2.033       1.822       1.597       1.400       1.194      0.9932      0.7389      0.4751      0.2505       0.000    
  35    10.00       9.951       9.910       9.841       9.709       9.542       9.398       9.227       8.989       8.641    
        8.287       7.992       7.722       7.514       7.363       7.225       7.053       6.847       6.637       6.426    
        6.244       6.034       5.843       5.706       5.590       5.461       5.253       5.020       4.789       4.573    
        4.440       4.281       4.085       3.886       3.644       3.347       3.092       2.918       2.664       2.388    
        2.189       1.976       1.762       1.569       1.337       1.112      0.8550      0.5709      0.2853       0.000    
  36    10.00       9.949       9.891       9.814       9.684       9.525       9.396       9.239       9.003       8.680    
        8.314       7.997       7.793       7.624       7.483       7.314       7.109       6.910       6.690       6.435    
        6.243       6.078       5.912       5.794       5.679       5.524       5.307       5.064       4.829       4.625    
        4.489       4.355       4.170       3.979       3.769       3.499       3.238       3.043       2.819       2.519    
        2.294       2.079       1.861       1.700       1.477       1.226      0.9686      0.6712      0.3414       0.000    
  37    10.00       9.934       9.870       9.787       9.656       9.512       9.368       9.217       9.002       8.658    
        8.290       8.027       7.898       7.739       7.554       7.388       7.158       6.920       6.657       6.406    
        6.251       6.119       5.964       5.843       5.711       5.532       5.329       5.082       4.869       4.707    
        4.559       4.409       4.217       4.047       3.828       3.569       3.361       3.170       2.919       2.622    
        2.352       2.141       1.965       1.785       1.573       1.340       1.092      0.7585      0.4110       0.000    
  38    10.00       9.927       9.846       9.757       9.637       9.497       9.339       9.182       8.956       8.638    
        8.356       8.143       7.979       7.836       7.633       7.383       7.127       6.849       6.570       6.403    
        6.281       6.125       5.983       5.876       5.737       5.536       5.294       5.069       4.936       4.801    
        4.638       4.466       4.278       4.103       3.888       3.646       3.457       3.263       2.965       2.652    
        2.417       2.220       2.042       1.861       1.671       1.446       1.190      0.8684      0.4507       0.000    
  39    10.00       9.908       9.826       9.739       9.622       9.466       9.297       9.132       8.927       8.671    
        8.451       8.292       8.108       7.909       7.623       7.306       6.995       6.701       6.529       6.417    
        6.259       6.095       5.991       5.892       5.764       5.535       5.287       5.127       5.006       4.866    
        4.693       4.525       4.334       4.145       3.960       3.757       3.539       3.312       3.004       2.694    
        2.447       2.249       2.110       1.965       1.759       1.528       1.270      0.9207      0.4510       0.000    
  40    10.00       9.893       9.814       9.727       9.609       9.448       9.274       9.108       8.933       8.721    
        8.540       8.404       8.184       7.873       7.517       7.165       6.849       6.644       6.526       6.398    
        6.227       6.084       5.988       5.876       5.727       5.544       5.370       5.205       5.060       4.930    
        4.770       4.581       4.384       4.204       4.031       3.825       3.589       3.360       3.025       2.686    
        2.462       2.297       2.151       2.026       1.818       1.561       1.324      0.9569      0.4725       0.000    
  41    10.00       9.901       9.809       9.713       9.583       9.437       9.285       9.137       8.970       8.781    
        8.609       8.448       8.159       7.770       7.377       7.058       6.807       6.630       6.510       6.366    
        6.195       6.072       5.969       5.850       5.716       5.580       5.449       5.291       5.118       4.968    
        4.822       4.640       4.441       4.275       4.093       3.890       3.650       3.329       2.958       2.697    
        2.513       2.341       2.206       2.049       1.829       1.575       1.365       1.016      0.5203       0.000    
  42    10.00       9.905       9.802       9.714       9.601       9.465       9.314       9.150       9.001       8.856    
        8.655       8.371       8.012       7.612       7.259       7.011       6.794       6.627       6.489       6.318    
        6.160       6.046       5.943       5.856       5.739       5.637       5.514       5.335       5.151       5.015    
        4.884       4.688       4.472       4.316       4.160       3.933       3.623       3.240       2.909       2.709    
        2.563       2.416       2.249       2.045       1.817       1.611       1.399       1.058      0.5444       0.000    
  43    10.00       9.906       9.812       9.723       9.633       9.513       9.362       9.200       9.040       8.837    
        8.554       8.230       7.862       7.477       7.202       6.993       6.788       6.615       6.450       6.281    
        6.133       6.026       5.948       5.879       5.776       5.663       5.546       5.371       5.205       5.092    
        4.927       4.710       4.507       4.352       4.173       3.896       3.532       3.162       2.931       2.773    
        2.617       2.459       2.255       2.035       1.826       1.628       1.437       1.055      0.4752       0.000    
  44    10.00       9.901       9.815       9.737       9.639       9.548       9.420       9.225       9.011       8.733    
        8.448       8.107       7.705       7.424       7.210       6.982       6.758       6.564       6.385       6.234    
        6.127       6.040       5.965       5.894       5.805       5.691       5.552       5.413       5.284       5.141    
        4.983       4.787       4.557       4.339       4.129       3.846       3.466       3.146       2.960       2.807    
        2.658       2.483       2.278       2.082       1.863       1.643       1.394      0.9033      0.3993       0.000    
  45    10.00       9.901       9.830       9.741       9.649       9.567       9.384       9.163       8.913       8.640    
        8.399       7.992       7.617       7.407       7.191       6.941       6.691       6.492       6.334       6.224    
        6.147       6.070       5.991       5.904       5.809       5.705       5.589       5.470       5.365       5.219    
        5.029       4.819       4.586       4.323       4.084       3.776       3.419       3.166       3.013       2.859    
        2.666       2.464       2.284       2.107       1.916       1.679       1.258      0.7574      0.3837       0.000    
  46    10.00       9.918       9.843       9.749       9.647       9.494       9.302       9.120       8.891       8.623    
        8.279       7.904       7.603       7.341       7.120       6.874       6.624       6.469       6.350       6.248    
        6.176       6.105       6.012       5.909       5.815       5.722       5.627       5.521       5.416       5.282    
        5.105       4.886       4.627       4.330       3.997       3.665       3.405       3.232       3.061       2.884    
        2.662       2.451       2.272       2.130       1.924       1.594       1.128      0.7137      0.3626       0.000    
  47    10.00       9.936       9.867       9.768       9.594       9.409       9.245       9.089       8.885       8.551    
        8.180       7.831       7.542       7.322       7.084       6.813       6.597       6.459       6.364       6.281    
        6.204       6.122       6.030       5.928       5.834       5.754       5.669       5.565       5.443       5.311    
        5.155       4.960       4.628       4.234       3.920       3.675       3.448       3.299       3.143       2.897    
        2.632       2.410       2.243       2.127       1.870       1.475       1.048      0.6870      0.3527       0.000    
  48    10.00       9.944       9.871       9.724       9.548       9.395       9.219       9.062       8.844       8.493    
        8.088       7.772       7.538       7.275       7.000       6.756       6.594       6.458       6.368       6.306    
        6.229       6.130       6.029       5.941       5.866       5.797       5.716       5.601       5.457       5.303    
        5.142       4.920       4.576       4.253       3.978       3.734       3.521       3.353       3.151       2.857    
        2.576       2.398       2.258       2.040       1.696       1.343       1.001      0.6921      0.3724       0.000    
  49    10.00       9.941       9.837       9.705       9.561       9.383       9.207       9.031       8.761       8.389    
        8.040       7.745       7.462       7.214       7.001       6.771       6.562       6.440       6.380       6.320    
        6.248       6.136       6.024       5.951       5.889       5.835       5.744       5.605       5.443       5.295    
        5.126       4.855       4.564       4.347       4.095       3.809       3.552       3.348       3.116       2.802    
        2.574       2.418       2.210       1.882       1.576       1.287      0.9894      0.6922      0.3712       0.000    
  50    10.00       9.933       9.825       9.691       9.560       9.394       9.197       8.977       8.693       8.399    
        8.035       7.665       7.402       7.204       7.024       6.765       6.533       6.442       6.388       6.328    
        6.256       6.141       6.027       5.956       5.903       5.853       5.750       5.591       5.427       5.287    
        5.113       4.833       4.608       4.413       4.150       3.867       3.597       3.319       3.001       2.737    
        2.620       2.443       2.122       1.793       1.564       1.285       1.003      0.6781      0.3023       0.000    

 HEAD WILL BE SAVED ON UNIT   51 AT END OF TIME STEP  75, STRESS PERIOD    2

 DRAWDOWN WILL BE SAVED ON UNIT   52 AT END OF TIME STEP  75, STRESS PERIOD    2
1
  VOLUMETRIC BUDGET FOR ENTIRE MODEL AT END OF TIME STEP 75 IN STRESS PERIOD   2
  ------------------------------------------------------------------------------

     CUMULATIVE VOLUMES      L**3       RATES FOR THIS TIME STEP      L**3/T
     ------------------                 ------------------------

           IN:                                      IN:
           ---                                      ---
             STORAGE =       35468.3164               STORAGE =         412.9829
       CONSTANT HEAD =       47099.2344         CONSTANT HEAD =         667.5756
               WELLS =           0.0000                 WELLS =           0.0000

            TOTAL IN =       82567.5469              TOTAL IN =        1080.5586

          OUT:                                     OUT:
          ----                                     ----
             STORAGE =       9.4320E-03               STORAGE =           0.0000
       CONSTANT HEAD =       45067.5352         CONSTANT HEAD =         580.5589
               WELLS =       37500.0000                 WELLS =         500.0000

           TOTAL OUT =       82567.5469             TOTAL OUT =        1080.5588

            IN - OUT =           0.0000              IN - OUT =      -2.4414E-04

 PERCENT DISCREPANCY =           0.00     PERCENT DISCREPANCY =           0.00






          TIME SUMMARY AT END OF TIME STEP  75 IN STRESS PERIOD    2
                    SECONDS     MINUTES      HOURS       DAYS        YEARS
                    -----------------------------------------------------------
   TIME STEP LENGTH  86400.      1440.0      24.000      1.0000     2.73785E-03
 STRESS PERIOD TIME 6.48000E+06 1.08000E+05  1800.0      75.000     0.20534    
         TOTAL TIME 6.56640E+06 1.09440E+05  1824.0      76.000     0.20808    
1
 
 SOLVING FOR HEAD 

 OUTPUT CONTROL FOR STRESS PERIOD    2   TIME STEP  76
    SAVE HEAD FOR ALL LAYERS
    SAVE DRAWDOWN FOR ALL LAYERS
    SAVE BUDGET
    PRINT HEAD FOR ALL LAYERS
    PRINT BUDGET
 UBDSV1 SAVING "         STORAGE" ON UNIT  53 AT TIME STEP 76, STRESS PERIOD   2
 UBDSV2 SAVING "   CONSTANT HEAD" ON UNIT  53 AT TIME STEP 76, STRESS PERIOD   2
 UBDSV1 SAVING "FLOW RIGHT FACE " ON UNIT  53 AT TIME STEP 76, STRESS PERIOD   2
 UBDSV1 SAVING "FLOW FRONT FACE " ON UNIT  53 AT TIME STEP 76, STRESS PERIOD   2
1
              HEAD IN LAYER   1 AT END OF TIME STEP  76 IN STRESS PERIOD    2
  ---------------------------------------------------------------------------

            1           2           3           4           5           6           7           8           9          10
           11          12          13          14          15          16          17          18          19          20
           21          22          23          24          25          26          27          28          29          30
           31          32          33          34          35          36          37          38          39          40
           41          42          43          44          45          46          47          48          49          50
 ........................................................................................................................
   1    10.00       9.955       9.890       9.816       9.744       9.663       9.586       9.510       9.414       9.320    
        9.247       9.176       9.103       9.033       8.919       8.781       8.628       8.508       8.445       8.374    
        8.288       8.221       8.155       8.079       7.978       7.781       7.558       7.403       7.253       7.111    
        6.928       6.634       6.258       5.841       5.409       4.949       4.495       4.117       3.624       3.087    
        2.646       2.226       1.759       1.369       1.129      0.9258      0.7650      0.6485      0.4353       0.000    
   2    10.00       9.953       9.895       9.821       9.748       9.676       9.599       9.499       9.394       9.317    
        9.254       9.193       9.132       9.045       8.914       8.770       8.626       8.507       8.443       8.363    
        8.277       8.226       8.173       8.093       7.965       7.772       7.570       7.410       7.258       7.120    
        6.916       6.608       6.213       5.737       5.276       4.832       4.439       4.073       3.571       3.052    
        2.610       2.138       1.713       1.408       1.182       1.008      0.8085      0.6312      0.3522       0.000    
   3    10.00       9.947       9.889       9.823       9.759       9.685       9.587       9.481       9.407       9.338    
        9.268       9.212       9.158       9.074       8.940       8.762       8.605       8.509       8.434       8.352    
        8.282       8.229       8.174       8.067       7.927       7.754       7.579       7.454       7.276       7.096    
        6.838       6.472       6.019       5.558       5.151       4.738       4.353       3.960       3.438       2.958    
        2.580       2.147       1.759       1.480       1.257       1.077      0.8409      0.5640      0.2557       0.000    
   4    10.00       9.947       9.890       9.825       9.753       9.668       9.567       9.486       9.422       9.350    
        9.289       9.242       9.182       9.086       8.956       8.767       8.603       8.513       8.429       8.356    
        8.280       8.214       8.143       8.031       7.892       7.737       7.577       7.422       7.264       7.060    
        6.734       6.247       5.765       5.415       5.079       4.654       4.192       3.731       3.314       2.954    
        2.602       2.202       1.839       1.588       1.337       1.108      0.8167      0.5071      0.2429       0.000    
   5    10.00       9.943       9.885       9.813       9.740       9.661       9.569       9.499       9.433       9.367    
        9.313       9.268       9.189       9.076       8.932       8.759       8.621       8.522       8.438       8.339    
        8.248       8.176       8.090       7.980       7.857       7.696       7.537       7.394       7.235       6.984    
        6.512       5.964       5.578       5.305       4.973       4.516       4.039       3.623       3.314       2.989    
        2.646       2.279       1.921       1.689       1.421       1.090      0.7431      0.4520      0.2273       0.000    
   6    10.00       9.935       9.867       9.806       9.739       9.653       9.576       9.516       9.447       9.384    
        9.333       9.278       9.178       9.051       8.924       8.780       8.640       8.525       8.414       8.299    
        8.208       8.122       8.047       7.948       7.789       7.631       7.503       7.357       7.135       6.751    
        6.228       5.730       5.410       5.176       4.875       4.422       3.952       3.605       3.345       3.053    
        2.743       2.422       2.057       1.747       1.392       1.028      0.6559      0.3898      0.2146       0.000    
   7    10.00       9.923       9.856       9.800       9.730       9.659       9.590       9.533       9.469       9.407    
        9.344       9.260       9.151       9.031       8.911       8.797       8.650       8.493       8.365       8.252    
        8.156       8.073       8.008       7.883       7.720       7.587       7.457       7.258       6.895       6.401    
        5.904       5.503       5.288       5.081       4.732       4.307       3.992       3.660       3.379       3.192    
        2.899       2.557       2.130       1.686       1.289      0.8920      0.5645      0.3923      0.2020       0.000    
   8    10.00       9.922       9.862       9.798       9.728       9.665       9.604       9.547       9.487       9.428    
        9.345       9.238       9.129       9.016       8.905       8.776       8.591       8.425       8.320       8.212    
        8.104       8.034       7.936       7.800       7.657       7.518       7.296       6.984       6.523       6.091    
        5.722       5.417       5.223       4.986       4.612       4.264       3.981       3.736       3.523       3.309    
        3.025       2.596       2.071       1.599       1.185      0.8342      0.5971      0.3840      0.1841       0.000    
   9    10.00       9.934       9.861       9.791       9.739       9.686       9.626       9.565       9.499       9.435    
        9.338       9.216       9.098       8.984       8.865       8.712       8.532       8.379       8.267       8.155    
        8.060       7.968       7.835       7.705       7.571       7.398       7.075       6.655       6.224       5.909    
        5.607       5.359       5.146       4.851       4.507       4.217       4.004       3.827       3.637       3.403    
        3.063       2.595       2.062       1.594       1.192      0.8519      0.6021      0.3872      0.1980       0.000    
  10    10.00       9.932       9.854       9.797       9.749       9.697       9.643       9.590       9.513       9.418    
        9.301       9.172       9.059       8.952       8.829       8.641       8.451       8.318       8.215       8.110    
        8.021       7.893       7.746       7.598       7.442       7.187       6.769       6.335       5.971       5.719    
        5.527       5.320       5.060       4.763       4.446       4.206       4.047       3.894       3.689       3.420    
        3.031       2.547       2.061       1.663       1.289      0.9364      0.6205      0.4110      0.2210       0.000    
  11    10.00       9.917       9.854       9.807       9.759       9.715       9.665       9.591       9.486       9.378    
        9.261       9.135       9.030       8.900       8.731       8.552       8.396       8.278       8.183       8.077    
        7.943       7.779       7.578       7.409       7.144       6.786       6.432       6.115       5.813       5.628    
        5.481       5.214       4.933       4.688       4.447       4.267       4.104       3.909       3.656       3.331    
        2.965       2.593       2.129       1.738       1.383       1.035      0.6965      0.4034      0.1693       0.000    
  12    10.00       9.920       9.861       9.811       9.771       9.725       9.667       9.563       9.440       9.337    
        9.228       9.096       8.967       8.813       8.664       8.498       8.348       8.247       8.141       7.993    
        7.767       7.521       7.283       7.046       6.691       6.422       6.225       5.915       5.668       5.533    
        5.366       5.116       4.888       4.662       4.493       4.322       4.117       3.879       3.573       3.248    
        2.941       2.606       2.160       1.776       1.444       1.079      0.7319      0.3801      0.1262       0.000    
  13    10.00       9.935       9.880       9.827       9.778       9.724       9.631       9.510       9.395       9.290    
        9.166       9.036       8.902       8.741       8.578       8.422       8.312       8.185       8.045       7.750    
        7.406       7.147       6.884       6.568       6.297       6.171       5.948       5.676       5.544       5.421    
        5.225       5.013       4.833       4.670       4.526       4.367       4.124       3.805       3.513       3.209    
        2.918       2.573       2.095       1.740       1.454       1.068      0.6715      0.3274      0.1002       0.000    
  14    10.00       9.950       9.902       9.845       9.779       9.688       9.567       9.446       9.341       9.225    
        9.098       8.977       8.824       8.655       8.510       8.375       8.207       8.040       7.759       7.320    
        6.990       6.740       6.391       6.145       6.021       5.908       5.688       5.522       5.393       5.265    
        5.096       4.948       4.823       4.685       4.531       4.376       4.101       3.757       3.457       3.146    
        2.850       2.423       1.969       1.691       1.367       1.020      0.6706      0.3024      8.6133E-02   0.000    
  15    10.00       9.960       9.910       9.847       9.766       9.634       9.486       9.380       9.282       9.167    
        9.067       8.942       8.745       8.552       8.418       8.206       7.991       7.817       7.385       6.907    
        6.611       6.277       5.985       5.895       5.832       5.687       5.501       5.347       5.248       5.150    
        5.025       4.918       4.818       4.697       4.547       4.359       4.039       3.660       3.347       3.065    
        2.750       2.321       1.967       1.621       1.237      0.9321      0.5980      0.2766      9.3589E-02   0.000    
  16    10.00       9.967       9.913       9.834       9.716       9.558       9.426       9.341       9.255       9.139    
        9.018       8.832       8.587       8.400       8.206       7.961       7.818       7.463       6.857       6.441    
        6.184       5.900       5.798       5.748       5.629       5.442       5.298       5.223       5.179       5.096    
        4.991       4.896       4.810       4.688       4.508       4.252       3.888       3.565       3.322       3.030    
        2.665       2.246       1.866       1.490       1.161      0.8240      0.5354      0.2788      9.9545E-02   0.000    
  17    10.00       9.961       9.897       9.792       9.657       9.493       9.376       9.302       9.198       9.075    
        8.858       8.598       8.392       8.201       7.950       7.706       7.406       6.840       6.340       6.084    
        5.884       5.736       5.666       5.543       5.359       5.227       5.187       5.166       5.122       5.039    
        4.949       4.866       4.776       4.652       4.390       4.058       3.780       3.574       3.341       2.991    
        2.532       2.123       1.771       1.420       1.039      0.6863      0.4557      0.2527      0.1053       0.000    
  18    10.00       9.945       9.861       9.739       9.562       9.423       9.341       9.230       9.103       8.917    
        8.641       8.425       8.231       7.940       7.614       7.278       6.858       6.370       6.067       5.873    
        5.722       5.595       5.481       5.315       5.189       5.150       5.134       5.112       5.054       4.975    
        4.899       4.816       4.702       4.509       4.241       3.977       3.765       3.597       3.306       2.875    
        2.435       2.010       1.657       1.328      0.9629      0.6322      0.3848      0.2110      9.8504E-02   0.000    
  19    10.00       9.926       9.830       9.651       9.474       9.393       9.289       9.144       8.990       8.778    
        8.533       8.319       8.009       7.594       7.255       6.926       6.479       6.085       5.895       5.769    
        5.611       5.449       5.320       5.182       5.115       5.097       5.075       5.031       4.961       4.893    
        4.820       4.729       4.580       4.386       4.173       3.953       3.774       3.561       3.146       2.723    
        2.375       1.943       1.562       1.241      0.8835      0.5691      0.3460      0.2001      0.1002       0.000    
  20    10.00       9.905       9.756       9.571       9.440       9.348       9.231       9.076       8.892       8.695    
        8.439       8.120       7.700       7.321       7.022       6.631       6.227       6.027       5.867       5.696    
        5.524       5.355       5.196       5.095       5.050       5.013       4.962       4.916       4.848       4.787    
        4.716       4.625       4.478       4.313       4.126       3.943       3.754       3.422       2.990       2.633    
        2.249       1.830       1.492       1.172      0.8394      0.5112      0.3005      0.2019      0.1020       0.000    
  21    10.00       9.849       9.696       9.544       9.408       9.303       9.175       8.978       8.790       8.599    
        8.266       7.864       7.471       7.161       6.841       6.468       6.181       6.007       5.823       5.636    
        5.426       5.234       5.094       4.991       4.914       4.846       4.804       4.763       4.692       4.645    
        4.598       4.503       4.382       4.243       4.080       3.906       3.641       3.307       2.936       2.514    
        2.130       1.737       1.445       1.152      0.7297      0.4319      0.3079      0.2247      0.1080       0.000    
  22    10.00       9.827       9.647       9.498       9.382       9.257       9.068       8.871       8.705       8.452    
        8.101       7.682       7.344       7.086       6.736       6.393       6.151       5.972       5.790       5.564    
        5.323       5.128       4.946       4.786       4.683       4.634       4.601       4.545       4.522       4.495    
        4.460       4.389       4.300       4.175       4.026       3.860       3.585       3.257       2.821       2.407    
        2.075       1.719       1.396      0.9612      0.6015      0.4332      0.3259      0.2168      8.6151E-02   0.000    
  23    10.00       9.788       9.611       9.488       9.361       9.174       8.962       8.807       8.597       8.334    
        7.977       7.605       7.344       7.019       6.642       6.343       6.139       5.975       5.769       5.498    
        5.241       5.011       4.771       4.485       4.232       4.182       4.255       4.290       4.339       4.356    
        4.342       4.298       4.222       4.123       3.982       3.810       3.556       3.149       2.692       2.352    
        2.035       1.630       1.164      0.7868      0.5873      0.4449      0.3257      0.2067      9.6289E-02   0.000    
  24    10.00       9.758       9.630       9.488       9.308       9.102       8.935       8.767       8.561       8.258    
        7.931       7.642       7.354       6.962       6.565       6.328       6.159       5.989       5.741       5.467    
        5.211       4.947       4.579       3.922       2.933       3.264       3.716       4.001       4.154       4.217    
        4.237       4.211       4.162       4.061       3.926       3.751       3.437       3.009       2.623       2.262    
        1.877       1.448       1.035      0.7520      0.5852      0.4428      0.3185      0.2414      0.1329       0.000    
  25    10.00       9.789       9.654       9.483       9.294       9.110       8.938       8.779       8.526       8.225    
        7.951       7.672       7.322       6.892       6.584       6.368       6.179       5.978       5.747       5.493    
        5.217       4.953       4.282       2.884     -0.2878       2.283       3.255       3.743       4.002       4.122    
        4.157       4.149       4.099       3.982       3.840       3.627       3.302       2.891       2.542       2.152    
        1.708       1.304      0.9661      0.7456      0.6095      0.4767      0.3484      0.2568      0.1677       0.000    
  26    10.00       9.819       9.692       9.508       9.313       9.152       8.975       8.774       8.516       8.281    
        8.045       7.675       7.233       6.868       6.643       6.448       6.223       5.962       5.717       5.500    
        5.287       4.997       4.377       3.361       2.294       2.813       3.376       3.731       3.951       4.079    
        4.113       4.102       4.035       3.921       3.784       3.554       3.129       2.749       2.454       1.977    
        1.493       1.157      0.9583      0.8096      0.6648      0.5173      0.3837      0.2811      0.1679       0.000    
  27    10.00       9.859       9.705       9.548       9.375       9.188       9.013       8.819       8.588       8.364    
        8.048       7.613       7.230       6.933       6.734       6.515       6.221       5.935       5.735       5.561    
        5.383       5.083       4.618       4.056       3.458       3.476       3.674       3.860       4.001       4.079    
        4.095       4.075       4.009       3.893       3.706       3.345       2.944       2.643       2.187       1.715    
        1.365       1.145      0.9994      0.8734      0.7399      0.5698      0.4104      0.3073      0.2065       0.000    
  28    10.00       9.872       9.742       9.592       9.435       9.259       9.078       8.883       8.666       8.408    
        8.022       7.628       7.296       7.010       6.804       6.583       6.332       6.049       5.783       5.611    
        5.451       5.236       4.925       4.504       4.124       3.953       3.964       4.049       4.086       4.111    
        4.102       4.066       3.987       3.820       3.543       3.163       2.817       2.403       1.949       1.632    
        1.375       1.193       1.048      0.9234      0.7860      0.6232      0.4654      0.3497      0.2132       0.000    
  29    10.00       9.878       9.755       9.643       9.492       9.332       9.158       8.962       8.733       8.389    
        8.011       7.667       7.352       7.116       6.879       6.640       6.410       6.184       5.926       5.701    
        5.529       5.347       5.133       4.873       4.528       4.342       4.271       4.241       4.223       4.182    
        4.128       4.051       3.947       3.720       3.381       3.032       2.665       2.244       1.894       1.662    
        1.450       1.249       1.091      0.9687      0.8348      0.6679      0.5051      0.3699      0.2157       0.000    
  30    10.00       9.889       9.787       9.689       9.558       9.411       9.257       9.040       8.755       8.406    
        8.017       7.668       7.405       7.173       6.940       6.709       6.516       6.321       6.087       5.846    
        5.640       5.473       5.286       5.099       4.877       4.676       4.594       4.464       4.388       4.279    
        4.156       4.023       3.865       3.621       3.335       2.998       2.614       2.221       1.961       1.746    
        1.505       1.307       1.155       1.009      0.8578      0.7098      0.5389      0.3860      0.2333       0.000    
  31    10.00       9.908       9.820       9.729       9.634       9.519       9.351       9.097       8.770       8.408    
        8.033       7.709       7.460       7.223       7.016       6.802       6.599       6.450       6.225       5.993    
        5.794       5.620       5.456       5.284       5.142       4.982       4.824       4.676       4.522       4.364    
        4.177       3.991       3.821       3.617       3.328       2.972       2.602       2.273       2.060       1.866    
        1.616       1.387       1.208       1.054      0.9035      0.7464      0.5747      0.4130      0.2274       0.000    
  32    10.00       9.923       9.856       9.776       9.685       9.581       9.416       9.131       8.825       8.496    
        8.101       7.764       7.517       7.294       7.086       6.907       6.727       6.538       6.356       6.135    
        5.926       5.736       5.576       5.417       5.287       5.174       4.998       4.825       4.623       4.408    
        4.204       4.011       3.820       3.617       3.341       3.017       2.704       2.413       2.184       1.966    
        1.734       1.493       1.302       1.121      0.9479      0.8052      0.6290      0.4146      0.2061       0.000    
  33    10.00       9.934       9.879       9.816       9.727       9.610       9.402       9.127       8.871       8.569    
        8.186       7.854       7.598       7.357       7.165       7.010       6.851       6.664       6.461       6.260    
        6.040       5.838       5.650       5.495       5.388       5.276       5.108       4.896       4.688       4.480    
        4.274       4.090       3.891       3.631       3.367       3.070       2.801       2.566       2.328       2.089    
        1.872       1.643       1.432       1.241       1.048      0.8778      0.6794      0.4257      0.2006       0.000    
  34    10.00       9.941       9.904       9.849       9.741       9.581       9.382       9.179       8.918       8.591    
        8.257       7.934       7.663       7.424       7.250       7.126       6.957       6.770       6.550       6.360    
        6.161       5.923       5.735       5.590       5.483       5.353       5.160       4.970       4.752       4.525    
        4.351       4.181       4.002       3.743       3.464       3.189       2.941       2.730       2.483       2.241    
        2.031       1.820       1.595       1.399       1.193      0.9924      0.7384      0.4747      0.2503       0.000    
  35    10.00       9.951       9.910       9.841       9.708       9.541       9.396       9.224       8.986       8.637    
        8.283       7.987       7.716       7.507       7.356       7.218       7.045       6.839       6.628       6.417    
        6.236       6.026       5.834       5.698       5.581       5.452       5.244       5.012       4.783       4.567    
        4.434       4.275       4.081       3.882       3.640       3.344       3.089       2.915       2.662       2.386    
        2.187       1.975       1.761       1.568       1.336       1.112      0.8545      0.5705      0.2851       0.000    
  36    10.00       9.948       9.891       9.813       9.683       9.524       9.395       9.237       9.000       8.676    
        8.310       7.992       7.787       7.618       7.476       7.307       7.101       6.902       6.682       6.427    
        6.235       6.070       5.904       5.786       5.671       5.517       5.300       5.058       4.823       4.620    
        4.485       4.351       4.166       3.975       3.766       3.496       3.235       3.040       2.817       2.517    
        2.292       2.078       1.859       1.699       1.476       1.225      0.9681      0.6708      0.3413       0.000    
  37    10.00       9.933       9.870       9.787       9.655       9.511       9.367       9.215       9.000       8.654    
        8.286       8.022       7.893       7.733       7.548       7.381       7.151       6.913       6.650       6.399    
        6.244       6.112       5.957       5.836       5.704       5.525       5.323       5.077       4.865       4.703    
        4.555       4.405       4.213       4.044       3.825       3.566       3.358       3.167       2.917       2.620    
        2.350       2.140       1.964       1.784       1.572       1.339       1.092      0.7581      0.4108       0.000    
  38    10.00       9.927       9.845       9.757       9.636       9.496       9.338       9.180       8.953       8.635    
        8.353       8.139       7.974       7.830       7.627       7.377       7.121       6.843       6.564       6.398    
        6.275       6.119       5.977       5.870       5.731       5.531       5.289       5.065       4.933       4.798    
        4.634       4.462       4.275       4.100       3.885       3.643       3.454       3.260       2.963       2.651    
        2.416       2.219       2.040       1.860       1.671       1.445       1.189      0.8680      0.4505       0.000    
  39    10.00       9.908       9.826       9.738       9.621       9.465       9.295       9.131       8.925       8.668    
        8.447       8.288       8.104       7.904       7.618       7.301       6.989       6.696       6.524       6.411    
        6.254       6.090       5.986       5.887       5.759       5.531       5.284       5.123       5.002       4.863    
        4.690       4.522       4.331       4.142       3.958       3.754       3.537       3.310       3.002       2.693    
        2.446       2.248       2.109       1.965       1.758       1.528       1.270      0.9203      0.4508       0.000    
  40    10.00       9.893       9.814       9.726       9.608       9.447       9.272       9.106       8.931       8.718    
        8.537       8.400       8.180       7.869       7.513       7.161       6.845       6.640       6.522       6.394    
        6.223       6.080       5.984       5.872       5.723       5.541       5.367       5.202       5.057       4.927    
        4.767       4.578       4.382       4.202       4.029       3.823       3.587       3.358       3.023       2.685    
        2.461       2.296       2.150       2.025       1.817       1.560       1.323      0.9565      0.4724       0.000    
  41    10.00       9.901       9.808       9.712       9.582       9.436       9.284       9.136       8.968       8.779    
        8.607       8.445       8.156       7.766       7.374       7.054       6.803       6.626       6.506       6.362    
        6.191       6.068       5.966       5.847       5.713       5.577       5.446       5.288       5.115       4.965    
        4.820       4.637       4.438       4.272       4.090       3.888       3.648       3.328       2.956       2.695    
        2.512       2.340       2.205       2.049       1.828       1.574       1.364       1.015      0.5201       0.000    
  42    10.00       9.905       9.802       9.714       9.601       9.464       9.313       9.148       8.999       8.854    
        8.652       8.369       8.009       7.609       7.256       7.008       6.790       6.623       6.485       6.314    
        6.157       6.043       5.940       5.853       5.736       5.634       5.511       5.332       5.148       5.012    
        4.882       4.685       4.470       4.314       4.158       3.931       3.621       3.239       2.908       2.708    
        2.562       2.415       2.248       2.044       1.816       1.611       1.399       1.057      0.5442       0.000    
  43    10.00       9.906       9.812       9.722       9.633       9.512       9.361       9.199       9.038       8.835    
        8.552       8.227       7.859       7.474       7.199       6.991       6.785       6.612       6.447       6.278    
        6.130       6.023       5.945       5.876       5.773       5.660       5.543       5.368       5.202       5.090    
        4.925       4.707       4.504       4.350       4.171       3.894       3.531       3.161       2.930       2.772    
        2.616       2.458       2.254       2.034       1.825       1.627       1.437       1.054      0.4750       0.000    
  44    10.00       9.900       9.815       9.737       9.639       9.547       9.420       9.224       9.010       8.732    
        8.446       8.105       7.703       7.422       7.208       6.979       6.755       6.561       6.382       6.231    
        6.124       6.038       5.963       5.891       5.802       5.688       5.549       5.411       5.282       5.139    
        4.981       4.784       4.555       4.337       4.127       3.844       3.464       3.144       2.959       2.806    
        2.656       2.482       2.277       2.081       1.862       1.642       1.394      0.9029      0.3991       0.000    
  45    10.00       9.900       9.830       9.741       9.649       9.567       9.383       9.162       8.912       8.638    
        8.398       7.990       7.615       7.405       7.188       6.939       6.688       6.489       6.331       6.221    
        6.144       6.067       5.988       5.902       5.807       5.703       5.586       5.468       5.362       5.216    
        5.026       4.816       4.584       4.321       4.082       3.774       3.417       3.165       3.012       2.858    
        2.665       2.463       2.283       2.106       1.915       1.678       1.257      0.7572      0.3835       0.000    
  46    10.00       9.918       9.843       9.748       9.647       9.494       9.301       9.119       8.890       8.622    
        8.277       7.902       7.601       7.339       7.117       6.872       6.622       6.466       6.347       6.245    
        6.174       6.102       6.009       5.906       5.812       5.720       5.624       5.519       5.413       5.280    
        5.103       4.883       4.625       4.328       3.995       3.664       3.403       3.230       3.060       2.883    
        2.660       2.450       2.272       2.129       1.924       1.593       1.128      0.7135      0.3625       0.000    
  47    10.00       9.936       9.867       9.768       9.594       9.409       9.244       9.088       8.884       8.550    
        8.178       7.830       7.540       7.320       7.082       6.810       6.595       6.456       6.362       6.278    
        6.201       6.119       6.027       5.926       5.832       5.752       5.667       5.562       5.441       5.309    
        5.153       4.958       4.626       4.232       3.919       3.674       3.446       3.298       3.141       2.896    
        2.631       2.409       2.242       2.126       1.869       1.474       1.047      0.6868      0.3525       0.000    
  48    10.00       9.944       9.871       9.724       9.547       9.394       9.219       9.061       8.843       8.492    
        8.087       7.771       7.536       7.273       6.998       6.754       6.591       6.456       6.365       6.303    
        6.227       6.128       6.027       5.938       5.863       5.795       5.714       5.598       5.455       5.301    
        5.140       4.918       4.574       4.251       3.976       3.732       3.519       3.351       3.150       2.856    
        2.575       2.397       2.257       2.039       1.695       1.342       1.000      0.6919      0.3723       0.000    
  49    10.00       9.941       9.836       9.705       9.561       9.383       9.206       9.030       8.760       8.388    
        8.039       7.743       7.460       7.212       6.999       6.769       6.560       6.437       6.377       6.317    
        6.246       6.134       6.022       5.948       5.886       5.833       5.742       5.603       5.440       5.293    
        5.124       4.853       4.562       4.345       4.093       3.808       3.550       3.347       3.115       2.801    
        2.573       2.417       2.210       1.881       1.575       1.287      0.9891      0.6920      0.3711       0.000    
  50    10.00       9.933       9.825       9.690       9.560       9.394       9.196       8.976       8.692       8.398    
        8.033       7.663       7.401       7.202       7.022       6.763       6.531       6.439       6.386       6.326    
        6.254       6.139       6.024       5.953       5.900       5.850       5.748       5.589       5.424       5.284    
        5.111       4.831       4.606       4.411       4.149       3.865       3.596       3.318       3.000       2.736    
        2.619       2.442       2.122       1.792       1.564       1.285       1.003      0.6779      0.3022       0.000    

 HEAD WILL BE SAVED ON UNIT   51 AT END OF TIME STEP  76, STRESS PERIOD    2

 DRAWDOWN WILL BE SAVED ON UNIT   52 AT END OF TIME STEP  76, STRESS PERIOD    2
1
  VOLUMETRIC BUDGET FOR ENTIRE MODEL AT END OF TIME STEP 76 IN STRESS PERIOD   2
  ------------------------------------------------------------------------------

     CUMULATIVE VOLUMES      L**3       RATES FOR THIS TIME STEP      L**3/T
     ------------------                 ------------------------

           IN:                                      IN:
           ---                                      ---
             STORAGE =       35879.1602               STORAGE =         410.8427
       CONSTANT HEAD =       47768.3789         CONSTANT HEAD =         669.1449
               WELLS =           0.0000                 WELLS =           0.0000

            TOTAL IN =       83647.5391              TOTAL IN =        1079.9877

          OUT:                                     OUT:
          ----                                     ----
             STORAGE =       9.4320E-03               STORAGE =           0.0000
       CONSTANT HEAD =       45647.5234         CONSTANT HEAD =         579.9874
               WELLS =       38000.0000                 WELLS =         500.0000

           TOTAL OUT =       83647.5312             TOTAL OUT =        1079.9874

            IN - OUT =       7.8125E-03              IN - OUT =       2.4414E-04

 PERCENT DISCREPANCY =           0.00     PERCENT DISCREPANCY =           0.00






          TIME SUMMARY AT END OF TIME STEP  76 IN STRESS PERIOD    2
                    SECONDS     MINUTES      HOURS       DAYS        YEARS
                    -----------------------------------------------------------
   TIME STEP LENGTH  86400.      1440.0      24.000      1.0000     2.73785E-03
 STRESS PERIOD TIME 6.56640E+06 1.09440E+05  1824.0      76.000     0.20808    
         TOTAL TIME 6.65280E+06 1.10880E+05  1848.0      77.000     0.21081    
1
 
 SOLVING FOR HEAD 

 OUTPUT CONTROL FOR STRESS PERIOD    2   TIME STEP  77
    SAVE HEAD FOR ALL LAYERS
    SAVE DRAWDOWN FOR ALL LAYERS
    SAVE BUDGET
    PRINT HEAD FOR ALL LAYERS
    PRINT BUDGET
 UBDSV1 SAVING "         STORAGE" ON UNIT  53 AT TIME STEP 77, STRESS PERIOD   2
 UBDSV2 SAVING "   CONSTANT HEAD" ON UNIT  53 AT TIME STEP 77, STRESS PERIOD   2
 UBDSV1 SAVING "FLOW RIGHT FACE " ON UNIT  53 AT TIME STEP 77, STRESS PERIOD   2
 UBDSV1 SAVING "FLOW FRONT FACE " ON UNIT  53 AT TIME STEP 77, STRESS PERIOD   2
1
              HEAD IN LAYER   1 AT END OF TIME STEP  77 IN STRESS PERIOD    2
  ---------------------------------------------------------------------------

            1           2           3           4           5           6           7           8           9          10
           11          12          13          14          15          16          17          18          19          20
           21          22          23          24          25          26          27          28          29          30
           31          32          33          34          35          36          37          38          39          40
           41          42          43          44          45          46          47          48          49          50
 ........................................................................................................................
   1    10.00       9.954       9.890       9.815       9.744       9.662       9.585       9.509       9.412       9.318    
        9.245       9.174       9.101       9.031       8.916       8.779       8.625       8.504       8.442       8.370    
        8.285       8.217       8.151       8.075       7.974       7.777       7.554       7.399       7.248       7.107    
        6.923       6.629       6.254       5.837       5.405       4.946       4.491       4.113       3.621       3.084    
        2.644       2.224       1.758       1.368       1.128      0.9249      0.7642      0.6479      0.4349       0.000    
   2    10.00       9.953       9.895       9.820       9.747       9.675       9.598       9.498       9.392       9.315    
        9.252       9.191       9.130       9.043       8.912       8.767       8.623       8.504       8.440       8.359    
        8.273       8.222       8.169       8.090       7.961       7.768       7.566       7.406       7.254       7.116    
        6.911       6.603       6.209       5.733       5.272       4.828       4.435       4.070       3.568       3.049    
        2.608       2.136       1.712       1.406       1.181       1.007      0.8077      0.6306      0.3518       0.000    
   3    10.00       9.947       9.888       9.822       9.758       9.685       9.586       9.480       9.406       9.336    
        9.266       9.210       9.156       9.072       8.938       8.760       8.602       8.506       8.431       8.349    
        8.279       8.225       8.170       8.063       7.923       7.750       7.575       7.449       7.272       7.092    
        6.834       6.468       6.015       5.554       5.147       4.734       4.350       3.957       3.435       2.955    
        2.578       2.144       1.757       1.479       1.256       1.076      0.8401      0.5634      0.2555       0.000    
   4    10.00       9.947       9.889       9.825       9.752       9.667       9.566       9.485       9.420       9.349    
        9.287       9.241       9.180       9.084       8.954       8.764       8.600       8.509       8.426       8.352    
        8.277       8.210       8.139       8.027       7.888       7.733       7.573       7.418       7.259       7.055    
        6.729       6.242       5.760       5.410       5.075       4.650       4.188       3.728       3.311       2.951    
        2.600       2.199       1.837       1.586       1.336       1.107      0.8159      0.5066      0.2427       0.000    
   5    10.00       9.943       9.885       9.812       9.739       9.660       9.568       9.498       9.432       9.365    
        9.311       9.266       9.187       9.074       8.929       8.757       8.618       8.518       8.435       8.336    
        8.245       8.172       8.086       7.976       7.852       7.692       7.533       7.389       7.231       6.979    
        6.507       5.959       5.573       5.301       4.968       4.511       4.035       3.619       3.310       2.986    
        2.643       2.277       1.919       1.687       1.419       1.089      0.7424      0.4515      0.2271       0.000    
   6    10.00       9.935       9.866       9.806       9.739       9.652       9.575       9.515       9.445       9.382    
        9.331       9.276       9.176       9.049       8.922       8.777       8.637       8.522       8.411       8.295    
        8.204       8.118       8.043       7.944       7.785       7.627       7.499       7.352       7.130       6.746    
        6.223       5.725       5.404       5.171       4.870       4.418       3.947       3.601       3.341       3.050    
        2.740       2.419       2.055       1.745       1.390       1.027      0.6552      0.3894      0.2144       0.000    
   7    10.00       9.923       9.855       9.799       9.730       9.658       9.589       9.532       9.467       9.405    
        9.343       9.258       9.149       9.029       8.909       8.795       8.647       8.489       8.361       8.248    
        8.152       8.069       8.004       7.878       7.715       7.583       7.452       7.253       6.890       6.395    
        5.898       5.497       5.282       5.075       4.726       4.302       3.988       3.655       3.375       3.188    
        2.896       2.554       2.127       1.684       1.288      0.8910      0.5639      0.3919      0.2018       0.000    
   8    10.00       9.922       9.861       9.797       9.727       9.664       9.603       9.546       9.486       9.427    
        9.344       9.236       9.127       9.013       8.902       8.773       8.587       8.421       8.317       8.208    
        8.100       8.029       7.931       7.795       7.652       7.513       7.291       6.979       6.517       6.084    
        5.715       5.411       5.217       4.980       4.606       4.258       3.976       3.732       3.519       3.304    
        3.021       2.593       2.069       1.597       1.184      0.8333      0.5965      0.3836      0.1839       0.000    
   9    10.00       9.934       9.860       9.790       9.738       9.685       9.625       9.563       9.497       9.433    
        9.337       9.214       9.095       8.981       8.862       8.709       8.528       8.376       8.263       8.151    
        8.055       7.964       7.830       7.700       7.566       7.393       7.069       6.649       6.217       5.902    
        5.600       5.353       5.140       4.845       4.501       4.212       3.999       3.822       3.632       3.399    
        3.059       2.592       2.059       1.592       1.191      0.8509      0.6014      0.3867      0.1978       0.000    
  10    10.00       9.931       9.854       9.796       9.748       9.697       9.642       9.589       9.512       9.417    
        9.299       9.170       9.056       8.950       8.826       8.637       8.447       8.314       8.211       8.106    
        8.016       7.889       7.741       7.593       7.436       7.181       6.763       6.329       5.964       5.712    
        5.520       5.313       5.054       4.756       4.439       4.200       4.042       3.889       3.684       3.416    
        3.027       2.544       2.059       1.661       1.287      0.9353      0.6198      0.4105      0.2207       0.000    
  11    10.00       9.917       9.854       9.806       9.759       9.715       9.664       9.590       9.484       9.377    
        9.259       9.133       9.027       8.897       8.728       8.548       8.392       8.274       8.179       8.073    
        7.938       7.774       7.572       7.403       7.138       6.779       6.424       6.107       5.805       5.621    
        5.473       5.207       4.926       4.681       4.441       4.261       4.098       3.904       3.651       3.326    
        2.961       2.590       2.127       1.736       1.381       1.033      0.6957      0.4030      0.1691       0.000    
  12    10.00       9.919       9.861       9.811       9.770       9.724       9.666       9.561       9.439       9.336    
        9.226       9.093       8.964       8.809       8.661       8.495       8.344       8.242       8.136       7.989    
        7.761       7.515       7.277       7.039       6.684       6.415       6.217       5.907       5.660       5.525    
        5.358       5.108       4.880       4.655       4.486       4.315       4.111       3.874       3.568       3.243    
        2.937       2.603       2.157       1.774       1.442       1.078      0.7309      0.3796      0.1260       0.000    
  13    10.00       9.935       9.879       9.826       9.778       9.723       9.630       9.509       9.393       9.288    
        9.164       9.034       8.899       8.738       8.574       8.418       8.307       8.181       8.040       7.744    
        7.400       7.140       6.877       6.560       6.289       6.162       5.939       5.667       5.535       5.412    
        5.216       5.004       4.825       4.662       4.519       4.360       4.117       3.799       3.508       3.205    
        2.914       2.570       2.092       1.737       1.452       1.067      0.6706      0.3270      0.1001       0.000    
  14    10.00       9.949       9.902       9.845       9.778       9.687       9.565       9.444       9.339       9.223    
        9.095       8.974       8.821       8.651       8.505       8.370       8.202       8.035       7.753       7.313    
        6.983       6.732       6.382       6.136       6.012       5.898       5.679       5.512       5.384       5.256    
        5.087       4.939       4.815       4.677       4.523       4.368       4.094       3.751       3.452       3.141    
        2.846       2.419       1.966       1.689       1.365       1.019      0.6696      0.3019      8.6008E-02   0.000    
  15    10.00       9.959       9.910       9.846       9.765       9.633       9.485       9.378       9.280       9.164    
        9.064       8.939       8.742       8.548       8.413       8.200       7.986       7.811       7.378       6.899    
        6.603       6.268       5.975       5.885       5.822       5.678       5.491       5.337       5.239       5.141    
        5.015       4.909       4.809       4.688       4.539       4.351       4.032       3.653       3.341       3.060    
        2.745       2.317       1.964       1.618       1.235      0.9307      0.5970      0.2762      9.3446E-02   0.000    
  16    10.00       9.966       9.913       9.834       9.715       9.557       9.424       9.339       9.252       9.136    
        9.015       8.829       8.582       8.395       8.200       7.955       7.812       7.456       6.849       6.432    
        6.174       5.890       5.788       5.737       5.618       5.432       5.288       5.213       5.169       5.086    
        4.982       4.886       4.801       4.679       4.500       4.244       3.881       3.558       3.315       3.024    
        2.661       2.242       1.863       1.487       1.159      0.8227      0.5345      0.2784      9.9387E-02   0.000    
  17    10.00       9.961       9.896       9.791       9.655       9.491       9.374       9.300       9.195       9.072    
        8.854       8.593       8.386       8.195       7.944       7.699       7.398       6.831       6.331       6.074    
        5.873       5.726       5.655       5.533       5.348       5.217       5.176       5.156       5.112       5.029    
        4.939       4.856       4.767       4.642       4.381       4.050       3.772       3.567       3.335       2.985    
        2.527       2.120       1.768       1.418       1.037      0.6852      0.4549      0.2523      0.1051       0.000    
  18    10.00       9.945       9.861       9.738       9.560       9.421       9.339       9.228       9.100       8.913    
        8.636       8.419       8.226       7.934       7.607       7.270       6.849       6.360       6.057       5.862    
        5.712       5.584       5.470       5.304       5.178       5.139       5.123       5.101       5.043       4.964    
        4.889       4.806       4.693       4.500       4.232       3.969       3.757       3.590       3.299       2.869    
        2.430       2.007       1.654       1.325      0.9612      0.6311      0.3841      0.2106      9.8339E-02   0.000    
  19    10.00       9.926       9.829       9.650       9.472       9.391       9.286       9.141       8.986       8.773    
        8.528       8.313       8.002       7.586       7.246       6.917       6.469       6.075       5.885       5.758    
        5.600       5.438       5.309       5.171       5.104       5.086       5.064       5.021       4.950       4.883    
        4.809       4.718       4.570       4.377       4.164       3.945       3.766       3.553       3.139       2.717    
        2.371       1.939       1.559       1.239      0.8820      0.5681      0.3454      0.1998      0.1000       0.000    
  20    10.00       9.904       9.755       9.569       9.438       9.345       9.228       9.073       8.888       8.690    
        8.434       8.114       7.692       7.312       7.013       6.621       6.216       6.017       5.857       5.685    
        5.513       5.344       5.184       5.083       5.039       5.002       4.950       4.905       4.837       4.776    
        4.705       4.615       4.468       4.303       4.116       3.934       3.746       3.414       2.983       2.627    
        2.245       1.826       1.489       1.170      0.8379      0.5103      0.3000      0.2015      0.1018       0.000    
  21    10.00       9.848       9.695       9.542       9.405       9.300       9.172       8.974       8.786       8.594    
        8.260       7.857       7.463       7.152       6.831       6.457       6.170       5.996       5.812       5.625    
        5.415       5.222       5.083       4.979       4.903       4.834       4.793       4.751       4.680       4.634    
        4.586       4.492       4.371       4.233       4.070       3.897       3.633       3.300       2.930       2.509    
        2.125       1.733       1.442       1.149      0.7284      0.4312      0.3074      0.2243      0.1078       0.000    
  22    10.00       9.826       9.645       9.496       9.380       9.254       9.065       8.867       8.700       8.446    
        8.094       7.674       7.335       7.077       6.727       6.382       6.140       5.961       5.779       5.553    
        5.311       5.116       4.935       4.775       4.671       4.622       4.589       4.533       4.510       4.483    
        4.448       4.378       4.289       4.164       4.016       3.850       3.577       3.250       2.815       2.402    
        2.071       1.716       1.393      0.9594      0.6005      0.4325      0.3253      0.2165      8.6009E-02   0.000    
  23    10.00       9.787       9.610       9.486       9.359       9.171       8.958       8.803       8.592       8.328    
        7.970       7.597       7.336       7.009       6.632       6.333       6.128       5.964       5.758       5.487    
        5.229       4.999       4.759       4.473       4.220       4.170       4.243       4.278       4.327       4.344    
        4.330       4.286       4.211       4.112       3.972       3.800       3.547       3.141       2.686       2.346    
        2.030       1.627       1.162      0.7855      0.5863      0.4441      0.3251      0.2064      9.6135E-02   0.000    
  24    10.00       9.757       9.629       9.486       9.305       9.099       8.931       8.763       8.555       8.252    
        7.923       7.634       7.346       6.953       6.555       6.318       6.149       5.978       5.730       5.456    
        5.200       4.936       4.568       3.910       2.921       3.252       3.704       3.989       4.142       4.205    
        4.225       4.200       4.151       4.050       3.915       3.741       3.429       3.002       2.617       2.257    
        1.873       1.445       1.033      0.7507      0.5843      0.4421      0.3180      0.2410      0.1327       0.000    
  25    10.00       9.788       9.653       9.481       9.291       9.106       8.934       8.774       8.521       8.219    
        7.944       7.664       7.313       6.883       6.574       6.357       6.169       5.967       5.736       5.482    
        5.205       4.942       4.271       2.872     -0.3012       2.270       3.242       3.730       3.990       4.109    
        4.145       4.137       4.087       3.971       3.829       3.617       3.293       2.884       2.537       2.148    
        1.704       1.301      0.9645      0.7444      0.6086      0.4760      0.3479      0.2565      0.1674       0.000    
  26    10.00       9.819       9.691       9.506       9.311       9.149       8.971       8.769       8.510       8.275    
        8.038       7.667       7.224       6.858       6.633       6.438       6.213       5.952       5.706       5.488    
        5.275       4.985       4.365       3.349       2.281       2.801       3.363       3.719       3.939       4.067    
        4.101       4.090       4.023       3.910       3.773       3.544       3.121       2.742       2.449       1.973    
        1.490       1.156      0.9569      0.8084      0.6638      0.5165      0.3831      0.2807      0.1676       0.000    
  27    10.00       9.859       9.704       9.546       9.372       9.185       9.009       8.814       8.583       8.358    
        8.041       7.605       7.222       6.924       6.725       6.505       6.211       5.924       5.724       5.550    
        5.371       5.072       4.606       4.044       3.446       3.463       3.661       3.847       3.989       4.066    
        4.083       4.063       3.998       3.882       3.696       3.337       2.937       2.637       2.182       1.711    
        1.363       1.143      0.9979      0.8721      0.7388      0.5690      0.4099      0.3068      0.2062       0.000    
  28    10.00       9.872       9.741       9.591       9.433       9.257       9.075       8.879       8.661       8.403    
        8.016       7.620       7.288       7.001       6.795       6.573       6.321       6.039       5.772       5.600    
        5.439       5.224       4.914       4.492       4.112       3.941       3.951       4.037       4.073       4.099    
        4.090       4.055       3.976       3.810       3.534       3.155       2.810       2.398       1.946       1.630    
        1.373       1.191       1.047      0.9220      0.7849      0.6223      0.4647      0.3492      0.2129       0.000    
  29    10.00       9.878       9.754       9.642       9.490       9.329       9.155       8.959       8.729       8.384    
        8.004       7.659       7.344       7.107       6.870       6.631       6.400       6.174       5.915       5.690    
        5.517       5.336       5.121       4.861       4.515       4.330       4.259       4.229       4.210       4.170    
        4.117       4.041       3.937       3.711       3.374       3.026       2.660       2.240       1.891       1.659    
        1.448       1.247       1.089      0.9674      0.8337      0.6670      0.5045      0.3694      0.2154       0.000    
  30    10.00       9.889       9.786       9.688       9.557       9.409       9.254       9.037       8.751       8.401    
        8.010       7.661       7.397       7.164       6.931       6.699       6.506       6.311       6.077       5.836    
        5.629       5.461       5.275       5.087       4.866       4.664       4.582       4.452       4.376       4.268    
        4.145       4.014       3.856       3.613       3.328       2.992       2.610       2.218       1.958       1.743    
        1.503       1.305       1.153       1.007      0.8567      0.7089      0.5383      0.3855      0.2330       0.000    
  31    10.00       9.908       9.820       9.728       9.633       9.517       9.349       9.094       8.766       8.402    
        8.027       7.702       7.452       7.215       7.007       6.793       6.590       6.440       6.215       5.983    
        5.783       5.609       5.445       5.273       5.131       4.971       4.813       4.665       4.511       4.354    
        4.168       3.983       3.814       3.610       3.322       2.967       2.598       2.270       2.057       1.863    
        1.614       1.385       1.207       1.052      0.9023      0.7455      0.5740      0.4125      0.2271       0.000    
  32    10.00       9.923       9.855       9.776       9.684       9.580       9.414       9.128       8.821       8.491    
        8.095       7.757       7.509       7.286       7.078       6.898       6.717       6.529       6.346       6.125    
        5.915       5.726       5.565       5.406       5.276       5.163       4.988       4.814       4.613       4.399    
        4.196       4.004       3.813       3.611       3.336       3.012       2.700       2.410       2.181       1.963    
        1.732       1.491       1.301       1.119      0.9468      0.8043      0.6283      0.4142      0.2058       0.000    
  33    10.00       9.934       9.879       9.815       9.726       9.608       9.400       9.124       8.868       8.564    
        8.181       7.847       7.591       7.350       7.157       7.002       6.843       6.655       6.452       6.250    
        6.031       5.828       5.640       5.484       5.378       5.266       5.098       4.887       4.679       4.472    
        4.267       4.083       3.885       3.625       3.362       3.066       2.797       2.563       2.325       2.087    
        1.870       1.641       1.431       1.240       1.047      0.8770      0.6787      0.4253      0.2004       0.000    
  34    10.00       9.940       9.904       9.848       9.740       9.580       9.380       9.177       8.915       8.587    
        8.251       7.928       7.656       7.416       7.242       7.118       6.949       6.761       6.541       6.351    
        6.152       5.914       5.726       5.581       5.473       5.343       5.151       4.961       4.744       4.518    
        4.345       4.175       3.996       3.738       3.460       3.185       2.937       2.727       2.480       2.239    
        2.029       1.818       1.594       1.398       1.192      0.9916      0.7378      0.4743      0.2501       0.000    
  35    10.00       9.951       9.909       9.840       9.707       9.539       9.394       9.222       8.983       8.633    
        8.278       7.981       7.709       7.501       7.349       7.210       7.037       6.831       6.620       6.409    
        6.227       6.017       5.826       5.689       5.572       5.444       5.236       5.005       4.776       4.561    
        4.429       4.270       4.076       3.878       3.636       3.340       3.086       2.912       2.660       2.384    
        2.185       1.973       1.759       1.567       1.335       1.111      0.8540      0.5702      0.2849       0.000    
  36    10.00       9.948       9.890       9.813       9.682       9.523       9.393       9.235       8.997       8.673    
        8.305       7.986       7.782       7.612       7.470       7.301       7.094       6.895       6.674       6.420    
        6.228       6.062       5.897       5.778       5.663       5.509       5.293       5.051       4.818       4.615    
        4.480       4.346       4.162       3.971       3.762       3.492       3.233       3.038       2.814       2.515    
        2.291       2.077       1.858       1.698       1.475       1.225      0.9676      0.6705      0.3411       0.000    
  37    10.00       9.933       9.870       9.786       9.654       9.510       9.365       9.213       8.997       8.651    
        8.281       8.017       7.888       7.728       7.542       7.375       7.144       6.906       6.643       6.393    
        6.237       6.105       5.950       5.829       5.696       5.519       5.317       5.072       4.860       4.699    
        4.551       4.401       4.209       4.040       3.822       3.563       3.356       3.165       2.915       2.618    
        2.349       2.139       1.963       1.783       1.572       1.338       1.091      0.7577      0.4106       0.000    
  38    10.00       9.927       9.845       9.756       9.636       9.495       9.336       9.178       8.951       8.632    
        8.349       8.134       7.969       7.825       7.621       7.371       7.115       6.837       6.558       6.392    
        6.269       6.113       5.971       5.864       5.725       5.525       5.284       5.061       4.929       4.794    
        4.631       4.459       4.271       4.097       3.882       3.640       3.452       3.258       2.961       2.649    
        2.414       2.218       2.039       1.859       1.670       1.444       1.189      0.8676      0.4503       0.000    
  39    10.00       9.907       9.826       9.738       9.620       9.464       9.294       9.129       8.922       8.665    
        8.444       8.284       8.100       7.899       7.613       7.296       6.984       6.690       6.519       6.406    
        6.249       6.085       5.981       5.882       5.754       5.526       5.280       5.120       4.999       4.859    
        4.686       4.519       4.328       4.139       3.955       3.752       3.534       3.308       3.000       2.691    
        2.444       2.247       2.108       1.964       1.758       1.527       1.269      0.9199      0.4506       0.000    
  40    10.00       9.892       9.813       9.726       9.607       9.446       9.271       9.104       8.929       8.716    
        8.534       8.397       8.176       7.865       7.508       7.156       6.841       6.636       6.517       6.389    
        6.219       6.075       5.979       5.868       5.719       5.537       5.363       5.198       5.054       4.924    
        4.764       4.575       4.379       4.199       4.026       3.820       3.585       3.356       3.022       2.683    
        2.459       2.295       2.149       2.025       1.816       1.560       1.323      0.9561      0.4722       0.000    
  41    10.00       9.901       9.808       9.712       9.582       9.435       9.283       9.134       8.966       8.776    
        8.604       8.442       8.152       7.763       7.370       7.051       6.799       6.622       6.502       6.358    
        6.187       6.064       5.962       5.843       5.710       5.574       5.443       5.285       5.112       4.962    
        4.817       4.635       4.435       4.270       4.088       3.886       3.645       3.326       2.955       2.694    
        2.511       2.339       2.204       2.048       1.828       1.573       1.363       1.015      0.5198       0.000    
  42    10.00       9.904       9.802       9.713       9.600       9.464       9.312       9.147       8.997       8.852    
        8.650       8.366       8.006       7.606       7.253       7.005       6.787       6.620       6.482       6.311    
        6.153       6.040       5.937       5.850       5.733       5.631       5.508       5.329       5.146       5.010    
        4.879       4.682       4.467       4.311       4.156       3.928       3.620       3.237       2.906       2.706    
        2.560       2.414       2.247       2.044       1.815       1.610       1.398       1.057      0.5439       0.000    
  43    10.00       9.906       9.812       9.722       9.632       9.511       9.360       9.198       9.037       8.833    
        8.550       8.225       7.857       7.471       7.196       6.988       6.782       6.609       6.444       6.275    
        6.127       6.020       5.942       5.873       5.770       5.658       5.540       5.365       5.200       5.087    
        4.922       4.705       4.502       4.348       4.169       3.892       3.529       3.159       2.929       2.770    
        2.615       2.457       2.253       2.033       1.825       1.626       1.436       1.054      0.4748       0.000    
  44    10.00       9.900       9.815       9.737       9.638       9.547       9.419       9.223       9.009       8.730    
        8.445       8.103       7.701       7.420       7.205       6.976       6.753       6.558       6.379       6.228    
        6.121       6.035       5.960       5.888       5.799       5.685       5.547       5.408       5.279       5.136    
        4.978       4.782       4.552       4.335       4.125       3.842       3.463       3.143       2.957       2.804    
        2.655       2.481       2.276       2.080       1.862       1.642       1.393      0.9026      0.3990       0.000    
  45    10.00       9.900       9.830       9.740       9.648       9.566       9.383       9.161       8.910       8.637    
        8.396       7.988       7.613       7.403       7.186       6.937       6.685       6.486       6.329       6.219    
        6.141       6.064       5.985       5.899       5.804       5.700       5.584       5.465       5.360       5.214    
        5.024       4.814       4.582       4.319       4.080       3.772       3.416       3.163       3.010       2.857    
        2.663       2.462       2.282       2.105       1.914       1.677       1.257      0.7569      0.3834       0.000    
  46    10.00       9.918       9.843       9.748       9.646       9.493       9.301       9.118       8.889       8.621    
        8.276       7.900       7.599       7.337       7.115       6.870       6.619       6.464       6.345       6.243    
        6.171       6.100       6.007       5.903       5.810       5.717       5.622       5.516       5.411       5.277    
        5.100       4.881       4.623       4.326       3.993       3.662       3.402       3.229       3.059       2.882    
        2.659       2.449       2.271       2.128       1.923       1.593       1.127      0.7132      0.3624       0.000    
  47    10.00       9.936       9.867       9.768       9.593       9.408       9.244       9.088       8.883       8.549    
        8.177       7.828       7.538       7.318       7.080       6.808       6.593       6.454       6.359       6.276    
        6.199       6.116       6.025       5.923       5.829       5.749       5.664       5.560       5.438       5.306    
        5.150       4.956       4.624       4.230       3.917       3.672       3.445       3.297       3.140       2.895    
        2.630       2.408       2.242       2.125       1.868       1.474       1.047      0.6866      0.3524       0.000    
  48    10.00       9.944       9.871       9.723       9.547       9.394       9.218       9.060       8.842       8.491    
        8.085       7.769       7.534       7.271       6.995       6.752       6.589       6.453       6.363       6.301    
        6.224       6.125       6.024       5.936       5.861       5.792       5.711       5.596       5.452       5.299    
        5.137       4.915       4.572       4.249       3.974       3.731       3.518       3.350       3.148       2.855    
        2.574       2.396       2.257       2.039       1.695       1.342      0.9999      0.6917      0.3721       0.000    
  49    10.00       9.941       9.836       9.705       9.561       9.382       9.206       9.029       8.759       8.387    
        8.037       7.742       7.458       7.210       6.997       6.767       6.557       6.435       6.375       6.315    
        6.243       6.131       6.019       5.946       5.884       5.830       5.739       5.600       5.438       5.291    
        5.122       4.850       4.560       4.343       4.091       3.806       3.549       3.346       3.113       2.800    
        2.573       2.416       2.209       1.881       1.575       1.286      0.9888      0.6918      0.3710       0.000    
  50    10.00       9.933       9.825       9.690       9.560       9.393       9.196       8.975       8.691       8.397    
        8.032       7.661       7.399       7.200       7.020       6.761       6.529       6.437       6.383       6.323    
        6.251       6.136       6.022       5.951       5.898       5.848       5.745       5.586       5.422       5.282    
        5.109       4.829       4.604       4.410       4.147       3.864       3.594       3.317       2.999       2.735    
        2.618       2.441       2.121       1.791       1.563       1.284       1.003      0.6776      0.3021       0.000    

 HEAD WILL BE SAVED ON UNIT   51 AT END OF TIME STEP  77, STRESS PERIOD    2

 DRAWDOWN WILL BE SAVED ON UNIT   52 AT END OF TIME STEP  77, STRESS PERIOD    2
1
  VOLUMETRIC BUDGET FOR ENTIRE MODEL AT END OF TIME STEP 77 IN STRESS PERIOD   2
  ------------------------------------------------------------------------------

     CUMULATIVE VOLUMES      L**3       RATES FOR THIS TIME STEP      L**3/T
     ------------------                 ------------------------

           IN:                                      IN:
           ---                                      ---
             STORAGE =       36287.8594               STORAGE =         408.7007
       CONSTANT HEAD =       48439.0898         CONSTANT HEAD =         670.7103
               WELLS =           0.0000                 WELLS =           0.0000

            TOTAL IN =       84726.9531              TOTAL IN =        1079.4109

          OUT:                                     OUT:
          ----                                     ----
             STORAGE =       9.4320E-03               STORAGE =           0.0000
       CONSTANT HEAD =       46226.9336         CONSTANT HEAD =         579.4104
               WELLS =       38500.0000                 WELLS =         500.0000

           TOTAL OUT =       84726.9453             TOTAL OUT =        1079.4104

            IN - OUT =       7.8125E-03              IN - OUT =       4.8828E-04

 PERCENT DISCREPANCY =           0.00     PERCENT DISCREPANCY =           0.00






          TIME SUMMARY AT END OF TIME STEP  77 IN STRESS PERIOD    2
                    SECONDS     MINUTES      HOURS       DAYS        YEARS
                    -----------------------------------------------------------
   TIME STEP LENGTH  86400.      1440.0      24.000      1.0000     2.73785E-03
 STRESS PERIOD TIME 6.65280E+06 1.10880E+05  1848.0      77.000     0.21081    
         TOTAL TIME 6.73920E+06 1.12320E+05  1872.0      78.000     0.21355    
1
 
 SOLVING FOR HEAD 

 OUTPUT CONTROL FOR STRESS PERIOD    2   TIME STEP  78
    SAVE HEAD FOR ALL LAYERS
    SAVE DRAWDOWN FOR ALL LAYERS
    SAVE BUDGET
    PRINT HEAD FOR ALL LAYERS
    PRINT BUDGET
 UBDSV1 SAVING "         STORAGE" ON UNIT  53 AT TIME STEP 78, STRESS PERIOD   2
 UBDSV2 SAVING "   CONSTANT HEAD" ON UNIT  53 AT TIME STEP 78, STRESS PERIOD   2
 UBDSV1 SAVING "FLOW RIGHT FACE " ON UNIT  53 AT TIME STEP 78, STRESS PERIOD   2
 UBDSV1 SAVING "FLOW FRONT FACE " ON UNIT  53 AT TIME STEP 78, STRESS PERIOD   2
1
              HEAD IN LAYER   1 AT END OF TIME STEP  78 IN STRESS PERIOD    2
  ---------------------------------------------------------------------------

            1           2           3           4           5           6           7           8           9          10
           11          12          13          14          15          16          17          18          19          20
           21          22          23          24          25          26          27          28          29          30
           31          32          33          34          35          36          37          38          39          40
           41          42          43          44          45          46          47          48          49          50
 ........................................................................................................................
   1    10.00       9.954       9.889       9.815       9.743       9.661       9.584       9.507       9.411       9.317    
        9.244       9.172       9.099       9.028       8.914       8.776       8.622       8.501       8.439       8.367    
        8.281       8.213       8.147       8.071       7.970       7.773       7.550       7.395       7.244       7.103    
        6.919       6.625       6.250       5.833       5.401       4.942       4.488       4.110       3.618       3.081    
        2.642       2.222       1.756       1.367       1.127      0.9240      0.7635      0.6473      0.4345       0.000    
   2    10.00       9.953       9.894       9.820       9.746       9.674       9.597       9.496       9.391       9.314    
        9.250       9.189       9.128       9.040       8.909       8.765       8.620       8.500       8.437       8.356    
        8.270       8.219       8.165       8.086       7.957       7.764       7.561       7.402       7.250       7.112    
        6.907       6.599       6.205       5.729       5.269       4.825       4.431       4.066       3.565       3.046    
        2.606       2.134       1.710       1.405       1.180       1.006      0.8069      0.6300      0.3515       0.000    
   3    10.00       9.947       9.888       9.822       9.757       9.684       9.585       9.479       9.404       9.335    
        9.264       9.208       9.154       9.069       8.935       8.757       8.599       8.502       8.427       8.345    
        8.275       8.222       8.166       8.059       7.919       7.746       7.571       7.445       7.267       7.088    
        6.829       6.463       6.011       5.549       5.142       4.730       4.346       3.953       3.432       2.952    
        2.575       2.142       1.756       1.477       1.255       1.075      0.8392      0.5629      0.2552       0.000    
   4    10.00       9.947       9.889       9.825       9.752       9.666       9.565       9.483       9.419       9.347    
        9.285       9.239       9.178       9.082       8.951       8.761       8.597       8.506       8.422       8.349    
        8.273       8.206       8.135       8.023       7.884       7.729       7.569       7.413       7.255       7.051    
        6.725       6.238       5.756       5.406       5.070       4.646       4.185       3.724       3.308       2.948    
        2.597       2.197       1.835       1.584       1.335       1.106      0.8150      0.5061      0.2425       0.000    
   5    10.00       9.943       9.885       9.812       9.738       9.659       9.567       9.497       9.431       9.364    
        9.310       9.264       9.185       9.072       8.927       8.754       8.614       8.515       8.432       8.332    
        8.241       8.169       8.082       7.972       7.848       7.688       7.528       7.385       7.226       6.974    
        6.503       5.954       5.568       5.296       4.964       4.507       4.031       3.615       3.307       2.983    
        2.640       2.274       1.917       1.685       1.418       1.088      0.7416      0.4511      0.2269       0.000    
   6    10.00       9.935       9.866       9.805       9.738       9.652       9.574       9.514       9.444       9.381    
        9.330       9.274       9.174       9.046       8.919       8.774       8.634       8.518       8.407       8.291    
        8.200       8.114       8.038       7.940       7.781       7.622       7.494       7.348       7.126       6.741    
        6.218       5.719       5.399       5.165       4.865       4.413       3.943       3.597       3.337       3.046    
        2.736       2.417       2.053       1.743       1.389       1.026      0.6546      0.3890      0.2142       0.000    
   7    10.00       9.923       9.855       9.799       9.729       9.657       9.588       9.531       9.466       9.404    
        9.341       9.257       9.147       9.027       8.906       8.792       8.644       8.486       8.357       8.244    
        8.148       8.065       8.000       7.874       7.711       7.578       7.447       7.248       6.884       6.390    
        5.892       5.491       5.276       5.070       4.721       4.297       3.983       3.651       3.371       3.184    
        2.893       2.552       2.125       1.683       1.286      0.8901      0.5633      0.3915      0.2016       0.000    
   8    10.00       9.922       9.861       9.797       9.727       9.663       9.603       9.544       9.485       9.425    
        9.342       9.234       9.125       9.011       8.900       8.771       8.584       8.418       8.313       8.204    
        8.096       8.025       7.927       7.791       7.647       7.508       7.286       6.973       6.511       6.078    
        5.709       5.405       5.211       4.974       4.601       4.253       3.970       3.727       3.514       3.300    
        3.018       2.590       2.066       1.595       1.183      0.8323      0.5958      0.3832      0.1837       0.000    
   9    10.00       9.934       9.860       9.790       9.738       9.684       9.624       9.562       9.496       9.432    
        9.335       9.212       9.093       8.979       8.859       8.706       8.525       8.372       8.259       8.146    
        8.051       7.959       7.826       7.695       7.561       7.388       7.063       6.643       6.211       5.895    
        5.594       5.346       5.134       4.839       4.495       4.206       3.993       3.817       3.628       3.394    
        3.055       2.589       2.057       1.590       1.190      0.8499      0.6007      0.3863      0.1976       0.000    
  10    10.00       9.931       9.853       9.796       9.747       9.696       9.641       9.588       9.511       9.415    
        9.298       9.168       9.054       8.947       8.823       8.634       8.444       8.310       8.206       8.102    
        8.012       7.884       7.736       7.588       7.431       7.175       6.756       6.322       5.957       5.705    
        5.513       5.306       5.047       4.750       4.433       4.194       4.036       3.884       3.679       3.411    
        3.023       2.541       2.056       1.659       1.286      0.9342      0.6191      0.4100      0.2204       0.000    
  11    10.00       9.917       9.853       9.806       9.758       9.714       9.663       9.589       9.483       9.375    
        9.257       9.130       9.025       8.894       8.725       8.544       8.388       8.270       8.175       8.068    
        7.933       7.769       7.567       7.398       7.131       6.773       6.417       6.100       5.798       5.613    
        5.466       5.199       4.919       4.674       4.434       4.255       4.092       3.898       3.646       3.321    
        2.957       2.586       2.124       1.734       1.380       1.032      0.6948      0.4025      0.1688       0.000    
  12    10.00       9.919       9.861       9.810       9.770       9.724       9.665       9.560       9.437       9.334    
        9.224       9.091       8.961       8.806       8.657       8.491       8.339       8.238       8.132       7.984    
        7.756       7.510       7.271       7.033       6.676       6.407       6.209       5.899       5.652       5.517    
        5.350       5.101       4.873       4.648       4.480       4.309       4.105       3.868       3.562       3.239    
        2.932       2.599       2.154       1.771       1.440       1.077      0.7300      0.3791      0.1258       0.000    
  13    10.00       9.935       9.879       9.826       9.777       9.722       9.629       9.508       9.391       9.286    
        9.161       9.031       8.896       8.734       8.570       8.413       8.303       8.176       8.035       7.739    
        7.394       7.133       6.870       6.552       6.281       6.154       5.931       5.658       5.527       5.404    
        5.208       4.996       4.818       4.655       4.511       4.353       4.111       3.794       3.502       3.200    
        2.909       2.566       2.089       1.735       1.450       1.065      0.6696      0.3265      9.9960E-02   0.000    
  14    10.00       9.949       9.901       9.845       9.777       9.686       9.564       9.442       9.337       9.220    
        9.092       8.971       8.817       8.647       8.501       8.366       8.197       8.030       7.747       7.306    
        6.975       6.724       6.374       6.127       6.003       5.889       5.669       5.503       5.375       5.246    
        5.078       4.930       4.806       4.669       4.516       4.361       4.088       3.745       3.446       3.136    
        2.841       2.415       1.963       1.686       1.363       1.017      0.6686      0.3015      8.5882E-02   0.000    
  15    10.00       9.959       9.909       9.846       9.765       9.631       9.483       9.376       9.277       9.162    
        9.061       8.935       8.738       8.544       8.408       8.195       7.980       7.805       7.371       6.891    
        6.594       6.259       5.966       5.876       5.813       5.668       5.482       5.327       5.229       5.131    
        5.006       4.900       4.800       4.680       4.531       4.344       4.025       3.647       3.335       3.055    
        2.741       2.314       1.960       1.616       1.233      0.9293      0.5961      0.2758      9.3302E-02   0.000    
  16    10.00       9.966       9.912       9.833       9.714       9.555       9.422       9.337       9.250       9.133    
        9.012       8.825       8.578       8.390       8.195       7.949       7.805       7.449       6.840       6.423    
        6.165       5.880       5.778       5.728       5.608       5.422       5.277       5.203       5.159       5.076    
        4.972       4.877       4.792       4.671       4.491       4.236       3.873       3.552       3.309       3.019    
        2.656       2.238       1.859       1.485       1.157      0.8214      0.5337      0.2779      9.9228E-02   0.000    
  17    10.00       9.961       9.896       9.790       9.654       9.489       9.372       9.297       9.193       9.069    
        8.850       8.588       8.381       8.189       7.938       7.693       7.391       6.823       6.321       6.064    
        5.863       5.715       5.645       5.523       5.338       5.206       5.166       5.145       5.102       5.019    
        4.929       4.847       4.757       4.633       4.373       4.042       3.764       3.560       3.329       2.979    
        2.523       2.116       1.765       1.415       1.036      0.6841      0.4542      0.2519      0.1049       0.000    
  18    10.00       9.945       9.860       9.737       9.558       9.419       9.336       9.225       9.097       8.910    
        8.632       8.414       8.220       7.927       7.599       7.262       6.840       6.350       6.047       5.852    
        5.701       5.573       5.459       5.293       5.167       5.128       5.112       5.090       5.033       4.954    
        4.879       4.796       4.683       4.490       4.224       3.961       3.749       3.583       3.292       2.863    
        2.426       2.003       1.651       1.323      0.9595      0.6300      0.3835      0.2103      9.8173E-02   0.000    
  19    10.00       9.926       9.828       9.649       9.470       9.389       9.283       9.138       8.983       8.769    
        8.522       8.307       7.995       7.578       7.238       6.908       6.459       6.065       5.874       5.748    
        5.589       5.427       5.298       5.160       5.093       5.075       5.053       5.010       4.939       4.872    
        4.799       4.708       4.560       4.367       4.155       3.936       3.758       3.546       3.133       2.712    
        2.366       1.936       1.556       1.237      0.8804      0.5671      0.3448      0.1995      9.9871E-02   0.000    
  20    10.00       9.904       9.754       9.567       9.436       9.343       9.225       9.069       8.884       8.685    
        8.428       8.107       7.685       7.304       7.004       6.612       6.206       6.006       5.846       5.674    
        5.502       5.332       5.173       5.072       5.027       4.991       4.939       4.894       4.826       4.765    
        4.694       4.604       4.458       4.294       4.107       3.925       3.737       3.407       2.977       2.622    
        2.240       1.823       1.486       1.168      0.8364      0.5094      0.2994      0.2012      0.1016       0.000    
  21    10.00       9.848       9.694       9.541       9.403       9.298       9.169       8.970       8.781       8.589    
        8.254       7.849       7.455       7.143       6.822       6.447       6.160       5.985       5.802       5.614    
        5.404       5.211       5.071       4.968       4.891       4.823       4.781       4.740       4.669       4.623    
        4.575       4.481       4.360       4.222       4.060       3.888       3.624       3.292       2.924       2.504    
        2.121       1.730       1.439       1.147      0.7270      0.4304      0.3068      0.2240      0.1077       0.000    
  22    10.00       9.825       9.644       9.494       9.377       9.251       9.061       8.863       8.695       8.440    
        8.087       7.666       7.327       7.068       6.717       6.372       6.130       5.950       5.768       5.542    
        5.300       5.105       4.923       4.763       4.660       4.611       4.577       4.521       4.498       4.472    
        4.437       4.367       4.278       4.154       4.006       3.841       3.568       3.242       2.809       2.396    
        2.066       1.712       1.390      0.9576      0.5994      0.4317      0.3248      0.2161      8.5867E-02   0.000    
  23    10.00       9.786       9.608       9.484       9.356       9.167       8.954       8.798       8.586       8.322    
        7.963       7.589       7.327       7.000       6.622       6.322       6.118       5.953       5.747       5.476    
        5.218       4.988       4.748       4.462       4.208       4.158       4.231       4.266       4.315       4.332    
        4.318       4.275       4.200       4.101       3.962       3.790       3.539       3.134       2.680       2.341    
        2.026       1.624       1.160      0.7841      0.5853      0.4434      0.3246      0.2061      9.5981E-02   0.000    
  24    10.00       9.756       9.627       9.484       9.303       9.095       8.927       8.758       8.550       8.246    
        7.916       7.626       7.337       6.944       6.545       6.308       6.138       5.967       5.719       5.444    
        5.188       4.924       4.556       3.899       2.909       3.240       3.691       3.977       4.130       4.193    
        4.213       4.188       4.140       4.039       3.905       3.732       3.420       2.994       2.611       2.252    
        1.869       1.442       1.031      0.7494      0.5833      0.4414      0.3175      0.2407      0.1325       0.000    
  25    10.00       9.787       9.651       9.479       9.288       9.103       8.930       8.770       8.516       8.213    
        7.937       7.657       7.304       6.873       6.564       6.347       6.158       5.957       5.725       5.471    
        5.194       4.930       4.259       2.859     -0.3144       2.257       3.230       3.718       3.978       4.097    
        4.133       4.125       4.076       3.960       3.819       3.608       3.285       2.877       2.531       2.143    
        1.701       1.299      0.9629      0.7432      0.6076      0.4752      0.3474      0.2561      0.1672       0.000    
  26    10.00       9.818       9.690       9.504       9.308       9.146       8.968       8.765       8.505       8.269    
        8.031       7.659       7.215       6.849       6.623       6.428       6.202       5.941       5.695       5.477    
        5.264       4.974       4.353       3.336       2.268       2.788       3.351       3.706       3.926       4.055    
        4.089       4.078       4.012       3.900       3.763       3.535       3.114       2.736       2.443       1.969    
        1.487       1.154      0.9554      0.8072      0.6628      0.5158      0.3826      0.2803      0.1674       0.000    
  27    10.00       9.858       9.703       9.545       9.370       9.182       9.006       8.810       8.578       8.353    
        8.034       7.597       7.213       6.914       6.715       6.495       6.200       5.913       5.713       5.539    
        5.360       5.060       4.595       4.032       3.433       3.451       3.649       3.835       3.977       4.054    
        4.071       4.052       3.987       3.871       3.687       3.329       2.930       2.631       2.178       1.708    
        1.361       1.141      0.9964      0.8708      0.7377      0.5681      0.4093      0.3064      0.2059       0.000    
  28    10.00       9.871       9.740       9.589       9.431       9.254       9.071       8.875       8.657       8.397    
        8.009       7.613       7.279       6.992       6.785       6.564       6.311       6.028       5.762       5.588    
        5.428       5.213       4.902       4.480       4.100       3.929       3.939       4.024       4.061       4.087    
        4.079       4.044       3.965       3.800       3.525       3.148       2.804       2.393       1.942       1.627    
        1.371       1.189       1.045      0.9207      0.7838      0.6215      0.4641      0.3488      0.2127       0.000    
  29    10.00       9.877       9.753       9.641       9.488       9.327       9.152       8.955       8.724       8.378    
        7.997       7.652       7.336       7.098       6.861       6.621       6.390       6.164       5.904       5.679    
        5.506       5.324       5.110       4.849       4.504       4.318       4.247       4.216       4.198       4.159    
        4.106       4.030       3.927       3.702       3.366       3.020       2.655       2.236       1.888       1.657    
        1.446       1.245       1.088      0.9661      0.8326      0.6661      0.5038      0.3689      0.2151       0.000    
  30    10.00       9.888       9.786       9.687       9.555       9.407       9.251       9.033       8.747       8.396    
        8.004       7.653       7.389       7.156       6.922       6.690       6.497       6.301       6.067       5.825    
        5.618       5.450       5.264       5.076       4.854       4.653       4.570       4.440       4.365       4.257    
        4.135       4.004       3.847       3.606       3.321       2.987       2.605       2.214       1.956       1.741    
        1.501       1.303       1.152       1.006      0.8556      0.7080      0.5376      0.3850      0.2327       0.000    
  31    10.00       9.908       9.819       9.727       9.632       9.515       9.347       9.091       8.762       8.397    
        8.021       7.695       7.444       7.206       6.998       6.784       6.580       6.431       6.205       5.972    
        5.773       5.598       5.434       5.262       5.120       4.960       4.802       4.654       4.500       4.344    
        4.159       3.975       3.806       3.603       3.316       2.962       2.594       2.267       2.054       1.861    
        1.612       1.383       1.205       1.051      0.9012      0.7446      0.5732      0.4120      0.2268       0.000    
  32    10.00       9.922       9.855       9.775       9.683       9.578       9.412       9.125       8.817       8.486    
        8.089       7.751       7.502       7.278       7.070       6.889       6.708       6.520       6.337       6.115    
        5.905       5.715       5.555       5.396       5.265       5.153       4.977       4.804       4.603       4.390    
        4.188       3.996       3.806       3.605       3.330       3.007       2.696       2.406       2.178       1.961    
        1.730       1.490       1.299       1.118      0.9457      0.8033      0.6276      0.4137      0.2056       0.000    
  33    10.00       9.933       9.878       9.814       9.725       9.607       9.398       9.122       8.864       8.560    
        8.175       7.841       7.584       7.342       7.150       6.994       6.834       6.646       6.443       6.240    
        6.021       5.818       5.630       5.474       5.368       5.255       5.088       4.877       4.671       4.464    
        4.260       4.077       3.879       3.619       3.357       3.061       2.793       2.560       2.322       2.084    
        1.868       1.639       1.429       1.239       1.046      0.8761      0.6781      0.4249      0.2002       0.000    
  34    10.00       9.940       9.903       9.848       9.739       9.579       9.378       9.174       8.911       8.582    
        8.246       7.922       7.649       7.409       7.235       7.111       6.941       6.753       6.533       6.342    
        6.143       5.904       5.716       5.571       5.464       5.334       5.142       4.953       4.736       4.511    
        4.339       4.169       3.990       3.732       3.455       3.181       2.934       2.724       2.478       2.236    
        2.027       1.816       1.592       1.397       1.191      0.9908      0.7372      0.4740      0.2499       0.000    
  35    10.00       9.951       9.909       9.840       9.707       9.538       9.392       9.220       8.980       8.629    
        8.273       7.975       7.703       7.494       7.342       7.203       7.029       6.823       6.612       6.400    
        6.219       6.008       5.817       5.680       5.564       5.435       5.228       4.997       4.769       4.555    
        4.423       4.265       4.071       3.873       3.632       3.337       3.083       2.910       2.657       2.382    
        2.184       1.971       1.758       1.565       1.334       1.110      0.8534      0.5698      0.2847       0.000    
  36    10.00       9.948       9.890       9.812       9.681       9.522       9.391       9.233       8.994       8.669    
        8.301       7.981       7.776       7.606       7.463       7.294       7.087       6.887       6.666       6.412    
        6.220       6.055       5.889       5.770       5.655       5.501       5.286       5.045       4.812       4.610    
        4.475       4.342       4.157       3.967       3.759       3.489       3.230       3.035       2.812       2.513    
        2.289       2.075       1.857       1.697       1.474       1.224      0.9670      0.6701      0.3409       0.000    
  37    10.00       9.933       9.869       9.786       9.653       9.509       9.363       9.211       8.994       8.647    
        8.277       8.013       7.883       7.722       7.536       7.369       7.137       6.899       6.636       6.386    
        6.230       6.098       5.943       5.822       5.690       5.512       5.311       5.066       4.856       4.694    
        4.547       4.397       4.206       4.037       3.819       3.560       3.353       3.162       2.913       2.616    
        2.347       2.137       1.962       1.782       1.571       1.338       1.091      0.7573      0.4104       0.000    
  38    10.00       9.927       9.844       9.756       9.635       9.494       9.335       9.176       8.949       8.629    
        8.345       8.130       7.964       7.820       7.616       7.365       7.109       6.831       6.553       6.386    
        6.263       6.107       5.965       5.858       5.719       5.520       5.280       5.057       4.925       4.790    
        4.627       4.455       4.268       4.094       3.879       3.638       3.450       3.256       2.959       2.647    
        2.413       2.217       2.038       1.858       1.669       1.444       1.188      0.8672      0.4501       0.000    
  39    10.00       9.907       9.825       9.737       9.619       9.463       9.292       9.127       8.920       8.662    
        8.441       8.280       8.095       7.895       7.608       7.291       6.979       6.685       6.514       6.401    
        6.244       6.080       5.976       5.877       5.749       5.522       5.276       5.116       4.995       4.856    
        4.683       4.516       4.325       4.136       3.952       3.749       3.532       3.306       2.999       2.690    
        2.443       2.246       2.107       1.963       1.757       1.526       1.269      0.9195      0.4504       0.000    
  40    10.00       9.892       9.813       9.725       9.606       9.445       9.270       9.103       8.927       8.713    
        8.531       8.394       8.172       7.861       7.504       7.152       6.836       6.631       6.513       6.385    
        6.214       6.071       5.975       5.864       5.715       5.533       5.360       5.195       5.050       4.920    
        4.761       4.572       4.376       4.196       4.024       3.818       3.583       3.354       3.020       2.682    
        2.458       2.293       2.148       2.024       1.815       1.559       1.322      0.9557      0.4720       0.000    
  41    10.00       9.901       9.808       9.712       9.581       9.435       9.282       9.133       8.964       8.774    
        8.601       8.439       8.149       7.759       7.367       7.047       6.795       6.618       6.498       6.354    
        6.184       6.060       5.958       5.840       5.706       5.570       5.439       5.281       5.109       4.959    
        4.814       4.632       4.433       4.267       4.086       3.884       3.643       3.324       2.953       2.693    
        2.510       2.338       2.203       2.047       1.827       1.573       1.363       1.014      0.5196       0.000    
  42    10.00       9.904       9.801       9.713       9.599       9.463       9.311       9.145       8.996       8.850    
        8.648       8.364       8.003       7.603       7.250       7.002       6.784       6.616       6.478       6.307    
        6.150       6.036       5.934       5.847       5.730       5.628       5.505       5.326       5.143       5.007    
        4.876       4.680       4.465       4.309       4.153       3.926       3.618       3.236       2.905       2.705    
        2.559       2.413       2.246       2.043       1.814       1.609       1.398       1.057      0.5437       0.000    
  43    10.00       9.906       9.812       9.721       9.632       9.511       9.360       9.197       9.035       8.831    
        8.548       8.223       7.855       7.469       7.193       6.985       6.779       6.606       6.440       6.272    
        6.123       6.017       5.939       5.870       5.767       5.655       5.537       5.362       5.197       5.084    
        4.919       4.702       4.500       4.345       4.167       3.890       3.527       3.158       2.927       2.769    
        2.614       2.456       2.252       2.033       1.824       1.626       1.436       1.053      0.4747       0.000    
  44    10.00       9.900       9.814       9.736       9.638       9.546       9.418       9.222       9.007       8.729    
        8.443       8.101       7.698       7.417       7.203       6.974       6.750       6.555       6.376       6.226    
        6.118       6.032       5.957       5.885       5.796       5.683       5.544       5.405       5.276       5.134    
        4.976       4.779       4.550       4.333       4.123       3.840       3.461       3.141       2.956       2.803    
        2.654       2.479       2.276       2.080       1.861       1.641       1.393      0.9023      0.3988       0.000    
  45    10.00       9.900       9.830       9.740       9.648       9.566       9.382       9.160       8.909       8.636    
        8.395       7.986       7.611       7.401       7.184       6.934       6.683       6.484       6.326       6.216    
        6.139       6.062       5.982       5.896       5.801       5.697       5.581       5.463       5.357       5.211    
        5.021       4.811       4.579       4.316       4.078       3.771       3.414       3.162       3.009       2.855    
        2.662       2.461       2.282       2.104       1.913       1.677       1.256      0.7566      0.3833       0.000    
  46    10.00       9.918       9.842       9.748       9.646       9.493       9.300       9.117       8.888       8.620    
        8.274       7.899       7.597       7.335       7.113       6.867       6.617       6.461       6.342       6.240    
        6.168       6.097       6.004       5.901       5.807       5.714       5.619       5.514       5.408       5.275    
        5.098       4.879       4.621       4.324       3.992       3.661       3.400       3.227       3.057       2.881    
        2.658       2.448       2.270       2.127       1.922       1.592       1.127      0.7130      0.3623       0.000    
  47    10.00       9.936       9.866       9.768       9.593       9.408       9.243       9.087       8.882       8.547    
        8.175       7.826       7.536       7.316       7.078       6.806       6.590       6.451       6.357       6.273    
        6.196       6.114       6.022       5.921       5.827       5.746       5.662       5.557       5.436       5.304    
        5.148       4.953       4.621       4.228       3.915       3.671       3.443       3.295       3.139       2.893    
        2.628       2.407       2.241       2.125       1.868       1.473       1.047      0.6863      0.3523       0.000    
  48    10.00       9.944       9.871       9.723       9.546       9.393       9.217       9.059       8.841       8.489    
        8.084       7.767       7.532       7.269       6.993       6.749       6.587       6.451       6.360       6.298    
        6.221       6.123       6.022       5.933       5.858       5.790       5.709       5.593       5.450       5.296    
        5.135       4.913       4.570       4.247       3.973       3.729       3.516       3.349       3.147       2.853    
        2.573       2.395       2.256       2.038       1.694       1.341      0.9996      0.6915      0.3720       0.000    
  49    10.00       9.941       9.836       9.704       9.560       9.382       9.205       9.028       8.758       8.386    
        8.036       7.740       7.457       7.208       6.995       6.765       6.555       6.432       6.372       6.312    
        6.241       6.129       6.017       5.943       5.881       5.827       5.737       5.598       5.436       5.288    
        5.120       4.848       4.558       4.341       4.090       3.805       3.547       3.344       3.112       2.799    
        2.572       2.416       2.208       1.880       1.574       1.286      0.9885      0.6915      0.3709       0.000    
  50    10.00       9.933       9.824       9.690       9.559       9.393       9.195       8.974       8.690       8.395    
        8.030       7.659       7.397       7.198       7.018       6.759       6.526       6.435       6.381       6.321    
        6.249       6.134       6.019       5.948       5.895       5.845       5.743       5.584       5.420       5.280    
        5.107       4.827       4.602       4.408       4.145       3.862       3.593       3.315       2.997       2.734    
        2.617       2.440       2.120       1.791       1.563       1.284       1.002      0.6774      0.3020       0.000    

 HEAD WILL BE SAVED ON UNIT   51 AT END OF TIME STEP  78, STRESS PERIOD    2

 DRAWDOWN WILL BE SAVED ON UNIT   52 AT END OF TIME STEP  78, STRESS PERIOD    2
1
  VOLUMETRIC BUDGET FOR ENTIRE MODEL AT END OF TIME STEP 78 IN STRESS PERIOD   2
  ------------------------------------------------------------------------------

     CUMULATIVE VOLUMES      L**3       RATES FOR THIS TIME STEP      L**3/T
     ------------------                 ------------------------

           IN:                                      IN:
           ---                                      ---
             STORAGE =       36694.4141               STORAGE =         406.5565
       CONSTANT HEAD =       49111.3594         CONSTANT HEAD =         672.2714
               WELLS =           0.0000                 WELLS =           0.0000

            TOTAL IN =       85805.7734              TOTAL IN =        1078.8279

          OUT:                                     OUT:
          ----                                     ----
             STORAGE =       9.4320E-03               STORAGE =           0.0000
       CONSTANT HEAD =       46805.7617         CONSTANT HEAD =         578.8281
               WELLS =       39000.0000                 WELLS =         500.0000

           TOTAL OUT =       85805.7734             TOTAL OUT =        1078.8281

            IN - OUT =           0.0000              IN - OUT =      -2.4414E-04

 PERCENT DISCREPANCY =           0.00     PERCENT DISCREPANCY =           0.00






          TIME SUMMARY AT END OF TIME STEP  78 IN STRESS PERIOD    2
                    SECONDS     MINUTES      HOURS       DAYS        YEARS
                    -----------------------------------------------------------
   TIME STEP LENGTH  86400.      1440.0      24.000      1.0000     2.73785E-03
 STRESS PERIOD TIME 6.73920E+06 1.12320E+05  1872.0      78.000     0.21355    
         TOTAL TIME 6.82560E+06 1.13760E+05  1896.0      79.000     0.21629    
1
 
 SOLVING FOR HEAD 

 OUTPUT CONTROL FOR STRESS PERIOD    2   TIME STEP  79
    SAVE HEAD FOR ALL LAYERS
    SAVE DRAWDOWN FOR ALL LAYERS
    SAVE BUDGET
    PRINT HEAD FOR ALL LAYERS
    PRINT BUDGET
 UBDSV1 SAVING "         STORAGE" ON UNIT  53 AT TIME STEP 79, STRESS PERIOD   2
 UBDSV2 SAVING "   CONSTANT HEAD" ON UNIT  53 AT TIME STEP 79, STRESS PERIOD   2
 UBDSV1 SAVING "FLOW RIGHT FACE " ON UNIT  53 AT TIME STEP 79, STRESS PERIOD   2
 UBDSV1 SAVING "FLOW FRONT FACE " ON UNIT  53 AT TIME STEP 79, STRESS PERIOD   2
1
              HEAD IN LAYER   1 AT END OF TIME STEP  79 IN STRESS PERIOD    2
  ---------------------------------------------------------------------------

            1           2           3           4           5           6           7           8           9          10
           11          12          13          14          15          16          17          18          19          20
           21          22          23          24          25          26          27          28          29          30
           31          32          33          34          35          36          37          38          39          40
           41          42          43          44          45          46          47          48          49          50
 ........................................................................................................................
   1    10.00       9.954       9.889       9.815       9.743       9.660       9.583       9.506       9.410       9.315    
        9.242       9.170       9.097       9.026       8.911       8.773       8.619       8.498       8.436       8.363    
        8.278       8.210       8.143       8.067       7.967       7.769       7.546       7.391       7.240       7.098    
        6.915       6.621       6.246       5.829       5.397       4.938       4.484       4.107       3.615       3.079    
        2.639       2.220       1.754       1.365       1.126      0.9231      0.7627      0.6466      0.4340       0.000    
   2    10.00       9.953       9.894       9.819       9.746       9.673       9.596       9.495       9.389       9.312    
        9.249       9.188       9.126       9.038       8.907       8.762       8.617       8.497       8.433       8.352    
        8.266       8.215       8.161       8.082       7.954       7.760       7.557       7.398       7.246       7.108    
        6.903       6.595       6.200       5.725       5.265       4.821       4.428       4.063       3.562       3.044    
        2.603       2.132       1.708       1.403       1.179       1.005      0.8061      0.6293      0.3511       0.000    
   3    10.00       9.947       9.888       9.821       9.757       9.683       9.584       9.478       9.403       9.333    
        9.262       9.207       9.153       9.067       8.933       8.754       8.596       8.499       8.424       8.342    
        8.272       8.218       8.162       8.056       7.915       7.742       7.566       7.441       7.263       7.083    
        6.825       6.459       6.006       5.545       5.138       4.726       4.343       3.950       3.429       2.949    
        2.573       2.140       1.754       1.476       1.253       1.073      0.8384      0.5623      0.2550       0.000    
   4    10.00       9.947       9.889       9.824       9.751       9.665       9.563       9.482       9.418       9.346    
        9.284       9.237       9.177       9.080       8.949       8.759       8.594       8.503       8.419       8.345    
        8.269       8.203       8.132       8.019       7.880       7.724       7.564       7.409       7.250       7.046    
        6.720       6.233       5.751       5.401       5.066       4.642       4.181       3.720       3.304       2.945    
        2.594       2.195       1.833       1.583       1.333       1.105      0.8142      0.5056      0.2422       0.000    
   5    10.00       9.943       9.885       9.811       9.738       9.658       9.566       9.496       9.429       9.362    
        9.308       9.262       9.183       9.070       8.925       8.751       8.611       8.512       8.428       8.329    
        8.237       8.165       8.078       7.968       7.844       7.683       7.524       7.380       7.221       6.970    
        6.498       5.949       5.563       5.291       4.959       4.502       4.027       3.611       3.303       2.980    
        2.637       2.272       1.915       1.684       1.416       1.087      0.7408      0.4506      0.2266       0.000    
   6    10.00       9.935       9.866       9.805       9.737       9.651       9.573       9.513       9.443       9.379    
        9.328       9.272       9.172       9.044       8.917       8.771       8.631       8.515       8.404       8.288    
        8.196       8.110       8.034       7.935       7.776       7.618       7.490       7.343       7.121       6.736    
        6.213       5.714       5.393       5.160       4.860       4.408       3.938       3.593       3.334       3.043    
        2.733       2.414       2.051       1.741       1.387       1.025      0.6539      0.3885      0.2139       0.000    
   7    10.00       9.922       9.855       9.798       9.728       9.656       9.587       9.530       9.465       9.403    
        9.340       9.255       9.145       9.024       8.903       8.789       8.641       8.482       8.354       8.240    
        8.144       8.061       7.996       7.870       7.706       7.573       7.442       7.243       6.879       6.384    
        5.886       5.485       5.271       5.064       4.716       4.291       3.978       3.647       3.367       3.180    
        2.889       2.549       2.123       1.681       1.285      0.8891      0.5627      0.3911      0.2013       0.000    
   8    10.00       9.922       9.861       9.796       9.726       9.662       9.602       9.543       9.484       9.424    
        9.340       9.232       9.123       9.009       8.897       8.768       8.581       8.414       8.309       8.200    
        8.092       8.021       7.923       7.786       7.643       7.504       7.281       6.968       6.505       6.072    
        5.703       5.399       5.205       4.968       4.595       4.247       3.965       3.722       3.510       3.296    
        3.014       2.587       2.064       1.593       1.181      0.8314      0.5951      0.3827      0.1835       0.000    
   9    10.00       9.934       9.860       9.789       9.737       9.684       9.623       9.561       9.495       9.430    
        9.334       9.210       9.091       8.976       8.857       8.703       8.522       8.368       8.255       8.142    
        8.046       7.955       7.821       7.690       7.556       7.382       7.057       6.637       6.204       5.889    
        5.587       5.340       5.127       4.833       4.489       4.201       3.988       3.812       3.623       3.390    
        3.051       2.586       2.054       1.588       1.188      0.8489      0.6000      0.3858      0.1973       0.000    
  10    10.00       9.931       9.853       9.795       9.747       9.695       9.640       9.587       9.510       9.414    
        9.296       9.166       9.052       8.944       8.820       8.631       8.440       8.306       8.202       8.097    
        8.008       7.879       7.731       7.583       7.425       7.170       6.750       6.315       5.950       5.698    
        5.506       5.299       5.040       4.743       4.427       4.189       4.031       3.879       3.675       3.407    
        3.019       2.537       2.053       1.657       1.284      0.9330      0.6183      0.4095      0.2202       0.000    
  11    10.00       9.916       9.853       9.805       9.757       9.713       9.663       9.588       9.482       9.373    
        9.255       9.128       9.022       8.892       8.722       8.541       8.384       8.266       8.170       8.064    
        7.929       7.764       7.561       7.392       7.125       6.766       6.410       6.093       5.790       5.606    
        5.459       5.192       4.912       4.667       4.428       4.249       4.087       3.893       3.641       3.317    
        2.953       2.583       2.121       1.731       1.378       1.031      0.6939      0.4020      0.1686       0.000    
  12    10.00       9.919       9.860       9.810       9.769       9.723       9.664       9.559       9.435       9.332    
        9.221       9.088       8.959       8.803       8.654       8.487       8.335       8.234       8.127       7.979    
        7.751       7.504       7.265       7.026       6.669       6.399       6.201       5.891       5.644       5.509    
        5.342       5.093       4.865       4.641       4.473       4.302       4.099       3.862       3.557       3.234    
        2.928       2.595       2.151       1.769       1.438       1.075      0.7290      0.3786      0.1257       0.000    
  13    10.00       9.934       9.879       9.825       9.777       9.721       9.628       9.506       9.389       9.284    
        9.159       9.028       8.893       8.731       8.566       8.409       8.299       8.171       8.030       7.733    
        7.387       7.126       6.862       6.544       6.272       6.145       5.922       5.650       5.518       5.395    
        5.200       4.988       4.810       4.647       4.504       4.346       4.105       3.788       3.497       3.195    
        2.905       2.562       2.086       1.732       1.448       1.064      0.6687      0.3261      9.9821E-02   0.000    
  14    10.00       9.949       9.901       9.844       9.777       9.685       9.563       9.441       9.335       9.218    
        9.090       8.968       8.814       8.643       8.497       8.361       8.192       8.025       7.741       7.299    
        6.968       6.716       6.365       6.118       5.994       5.880       5.660       5.494       5.366       5.237    
        5.070       4.922       4.798       4.661       4.508       4.354       4.081       3.739       3.440       3.131    
        2.836       2.411       1.960       1.683       1.361       1.016      0.6676      0.3011      8.5755E-02   0.000    
  15    10.00       9.959       9.909       9.845       9.764       9.630       9.481       9.374       9.275       9.159    
        9.058       8.932       8.734       8.539       8.404       8.190       7.975       7.799       7.364       6.883    
        6.586       6.250       5.956       5.866       5.803       5.658       5.472       5.317       5.219       5.122    
        4.997       4.891       4.791       4.671       4.523       4.336       4.018       3.640       3.329       3.050    
        2.736       2.310       1.957       1.613       1.231      0.9278      0.5952      0.2753      9.3158E-02   0.000    
  16    10.00       9.966       9.912       9.833       9.713       9.554       9.420       9.335       9.247       9.130    
        9.009       8.821       8.573       8.385       8.190       7.943       7.799       7.442       6.832       6.414    
        6.155       5.870       5.768       5.718       5.599       5.411       5.267       5.193       5.149       5.066    
        4.963       4.868       4.783       4.662       4.483       4.228       3.866       3.545       3.303       3.013    
        2.651       2.234       1.856       1.482       1.155      0.8200      0.5328      0.2775      9.9068E-02   0.000    
  17    10.00       9.961       9.895       9.789       9.653       9.488       9.370       9.295       9.190       9.066    
        8.846       8.584       8.376       8.184       7.932       7.686       7.383       6.814       6.311       6.054    
        5.853       5.705       5.635       5.512       5.327       5.196       5.155       5.135       5.092       5.009    
        4.919       4.837       4.748       4.624       4.364       4.034       3.757       3.553       3.322       2.974    
        2.518       2.112       1.762       1.413       1.034      0.6829      0.4534      0.2515      0.1048       0.000    
  18    10.00       9.945       9.860       9.737       9.557       9.417       9.334       9.222       9.094       8.906    
        8.627       8.409       8.214       7.921       7.592       7.254       6.831       6.340       6.036       5.841    
        5.691       5.563       5.449       5.283       5.156       5.118       5.102       5.080       5.022       4.944    
        4.869       4.787       4.673       4.481       4.215       3.953       3.741       3.576       3.286       2.858    
        2.421       1.999       1.648       1.320      0.9578      0.6289      0.3828      0.2099      9.8007E-02   0.000    
  19    10.00       9.926       9.828       9.647       9.468       9.387       9.281       9.135       8.979       8.764    
        8.517       8.301       7.989       7.571       7.230       6.899       6.449       6.054       5.863       5.737    
        5.579       5.417       5.287       5.149       5.083       5.065       5.043       4.999       4.929       4.861    
        4.788       4.698       4.550       4.358       4.146       3.928       3.750       3.539       3.126       2.706    
        2.361       1.932       1.553       1.235      0.8788      0.5661      0.3442      0.1991      9.9700E-02   0.000    
  20    10.00       9.903       9.753       9.566       9.434       9.340       9.222       9.066       8.880       8.681    
        8.423       8.101       7.677       7.295       6.995       6.602       6.196       5.996       5.835       5.663    
        5.491       5.322       5.162       5.061       5.017       4.980       4.928       4.883       4.815       4.754    
        4.684       4.593       4.447       4.284       4.098       3.916       3.729       3.399       2.971       2.616    
        2.236       1.819       1.483       1.165      0.8348      0.5085      0.2989      0.2008      0.1015       0.000    
  21    10.00       9.847       9.693       9.539       9.401       9.295       9.166       8.966       8.777       8.583    
        8.248       7.842       7.447       7.134       6.813       6.437       6.149       5.975       5.791       5.603    
        5.393       5.200       5.060       4.957       4.880       4.812       4.770       4.729       4.658       4.611    
        4.564       4.470       4.350       4.212       4.050       3.879       3.616       3.285       2.917       2.498    
        2.116       1.726       1.436       1.145      0.7257      0.4297      0.3063      0.2236      0.1075       0.000    
  22    10.00       9.825       9.642       9.492       9.375       9.248       9.058       8.858       8.690       8.435    
        8.081       7.659       7.318       7.059       6.707       6.362       6.119       5.940       5.758       5.531    
        5.289       5.094       4.912       4.752       4.649       4.599       4.566       4.510       4.487       4.460    
        4.426       4.356       4.268       4.143       3.997       3.831       3.560       3.235       2.802       2.391    
        2.062       1.709       1.387      0.9558      0.5983      0.4310      0.3242      0.2157      8.5724E-02   0.000    
  23    10.00       9.785       9.607       9.482       9.354       9.164       8.950       8.794       8.581       8.316    
        7.956       7.581       7.319       6.991       6.613       6.312       6.107       5.943       5.737       5.465    
        5.207       4.977       4.736       4.450       4.197       4.147       4.220       4.255       4.303       4.320    
        4.307       4.263       4.189       4.091       3.952       3.781       3.530       3.126       2.674       2.336    
        2.022       1.620       1.158      0.7827      0.5843      0.4426      0.3241      0.2057      9.5827E-02   0.000    
  24    10.00       9.755       9.626       9.482       9.300       9.092       8.923       8.754       8.545       8.239    
        7.909       7.618       7.329       6.935       6.535       6.297       6.128       5.957       5.708       5.433    
        5.177       4.913       4.545       3.887       2.897       3.227       3.679       3.965       4.118       4.182    
        4.202       4.177       4.129       4.029       3.894       3.722       3.411       2.987       2.605       2.248    
        1.865       1.439       1.029      0.7481      0.5823      0.4407      0.3170      0.2403      0.1323       0.000    
  25    10.00       9.786       9.650       9.477       9.285       9.099       8.926       8.765       8.510       8.207    
        7.930       7.649       7.296       6.864       6.554       6.337       6.148       5.946       5.714       5.460    
        5.183       4.919       4.247       2.847     -0.3275       2.245       3.218       3.706       3.966       4.085    
        4.122       4.114       4.065       3.950       3.809       3.598       3.277       2.870       2.525       2.139    
        1.698       1.297      0.9612      0.7420      0.6066      0.4745      0.3468      0.2557      0.1669       0.000    
  26    10.00       9.817       9.688       9.502       9.305       9.142       8.964       8.760       8.500       8.263    
        8.024       7.652       7.207       6.839       6.613       6.418       6.192       5.930       5.684       5.466    
        5.253       4.962       4.342       3.324       2.256       2.776       3.338       3.694       3.914       4.043    
        4.077       4.067       4.001       3.889       3.753       3.526       3.106       2.730       2.438       1.965    
        1.485       1.152      0.9539      0.8059      0.6618      0.5150      0.3820      0.2799      0.1672       0.000    
  27    10.00       9.857       9.702       9.543       9.367       9.179       9.002       8.806       8.573       8.347    
        8.028       7.590       7.204       6.905       6.706       6.485       6.190       5.902       5.702       5.528    
        5.349       5.049       4.583       4.020       3.421       3.438       3.636       3.822       3.964       4.042    
        4.060       4.040       3.976       3.861       3.677       3.320       2.923       2.625       2.173       1.705    
        1.359       1.140      0.9949      0.8696      0.7366      0.5673      0.4087      0.3059      0.2056       0.000    
  28    10.00       9.871       9.739       9.588       9.429       9.251       9.068       8.871       8.652       8.392    
        8.002       7.605       7.271       6.983       6.776       6.554       6.301       6.018       5.751       5.578    
        5.417       5.202       4.891       4.468       4.088       3.916       3.927       4.012       4.049       4.075    
        4.067       4.032       3.955       3.790       3.516       3.141       2.798       2.388       1.939       1.624    
        1.369       1.188       1.044      0.9194      0.7827      0.6206      0.4634      0.3483      0.2124       0.000    
  29    10.00       9.877       9.752       9.639       9.487       9.324       9.149       8.951       8.720       8.373    
        7.991       7.644       7.328       7.090       6.852       6.612       6.380       6.154       5.894       5.668    
        5.495       5.313       5.098       4.838       4.492       4.306       4.235       4.204       4.187       4.147    
        4.094       4.019       3.917       3.693       3.359       3.013       2.649       2.232       1.885       1.654    
        1.444       1.243       1.086      0.9647      0.8314      0.6652      0.5031      0.3684      0.2148       0.000    
  30    10.00       9.888       9.785       9.686       9.554       9.405       9.249       9.030       8.742       8.390    
        7.997       7.646       7.381       7.147       6.914       6.681       6.487       6.291       6.057       5.815    
        5.607       5.440       5.252       5.065       4.843       4.641       4.559       4.429       4.353       4.246    
        4.124       3.995       3.839       3.598       3.315       2.981       2.600       2.211       1.953       1.738    
        1.499       1.301       1.150       1.005      0.8544      0.7071      0.5369      0.3845      0.2323       0.000    
  31    10.00       9.907       9.818       9.726       9.631       9.514       9.344       9.088       8.757       8.392    
        8.014       7.688       7.437       7.198       6.990       6.775       6.571       6.421       6.195       5.962    
        5.762       5.588       5.423       5.251       5.109       4.949       4.791       4.643       4.489       4.334    
        4.150       3.966       3.799       3.596       3.310       2.957       2.590       2.263       2.051       1.858    
        1.610       1.381       1.204       1.050      0.9001      0.7437      0.5725      0.4114      0.2265       0.000    
  32    10.00       9.922       9.854       9.774       9.682       9.577       9.410       9.122       8.813       8.481    
        8.083       7.744       7.494       7.270       7.061       6.881       6.700       6.510       6.327       6.105    
        5.895       5.705       5.544       5.386       5.255       5.142       4.966       4.793       4.594       4.382    
        4.180       3.989       3.799       3.599       3.325       3.003       2.692       2.403       2.175       1.958    
        1.727       1.488       1.298       1.117      0.9446      0.8024      0.6269      0.4132      0.2054       0.000    
  33    10.00       9.933       9.878       9.814       9.724       9.606       9.396       9.119       8.861       8.555    
        8.170       7.834       7.577       7.335       7.142       6.986       6.826       6.637       6.434       6.231    
        6.011       5.808       5.620       5.464       5.358       5.245       5.078       4.868       4.662       4.457    
        4.253       4.070       3.872       3.614       3.352       3.057       2.790       2.556       2.319       2.082    
        1.866       1.638       1.428       1.237       1.045      0.8752      0.6774      0.4245      0.2000       0.000    
  34    10.00       9.940       9.903       9.848       9.738       9.577       9.376       9.172       8.908       8.578    
        8.241       7.916       7.643       7.402       7.227       7.103       6.933       6.744       6.524       6.333    
        6.134       5.895       5.707       5.562       5.454       5.324       5.133       4.945       4.729       4.505    
        4.333       4.163       3.985       3.727       3.451       3.177       2.930       2.721       2.475       2.234    
        2.025       1.815       1.591       1.396       1.190      0.9899      0.7366      0.4736      0.2497       0.000    
  35    10.00       9.951       9.909       9.839       9.706       9.537       9.391       9.218       8.977       8.625    
        8.268       7.970       7.697       7.488       7.335       7.196       7.022       6.815       6.604       6.392    
        6.211       6.000       5.808       5.672       5.555       5.427       5.220       4.990       4.762       4.550    
        4.418       4.260       4.066       3.869       3.628       3.333       3.080       2.907       2.655       2.380    
        2.182       1.970       1.757       1.564       1.333       1.109      0.8529      0.5694      0.2846       0.000    
  36    10.00       9.948       9.890       9.812       9.680       9.520       9.390       9.231       8.992       8.666    
        8.296       7.976       7.770       7.600       7.457       7.287       7.080       6.880       6.659       6.404    
        6.213       6.047       5.881       5.763       5.647       5.494       5.279       5.039       4.807       4.605    
        4.470       4.337       4.153       3.963       3.755       3.486       3.227       3.033       2.810       2.511    
        2.287       2.074       1.856       1.696       1.473       1.223      0.9665      0.6697      0.3407       0.000    
  37    10.00       9.933       9.869       9.785       9.652       9.507       9.362       9.209       8.992       8.644    
        8.273       8.008       7.878       7.716       7.530       7.362       7.131       6.892       6.629       6.379    
        6.223       6.092       5.936       5.815       5.683       5.506       5.305       5.061       4.851       4.690    
        4.542       4.393       4.202       4.033       3.816       3.557       3.350       3.160       2.911       2.614    
        2.346       2.136       1.961       1.781       1.570       1.337       1.090      0.7570      0.4102       0.000    
  38    10.00       9.926       9.844       9.755       9.634       9.493       9.333       9.175       8.946       8.626    
        8.341       8.126       7.959       7.815       7.610       7.359       7.102       6.825       6.547       6.380    
        6.257       6.101       5.959       5.852       5.713       5.514       5.275       5.053       4.921       4.786    
        4.623       4.451       4.265       4.091       3.876       3.635       3.447       3.253       2.957       2.646    
        2.411       2.216       2.037       1.857       1.668       1.443       1.188      0.8668      0.4498       0.000    
  39    10.00       9.907       9.825       9.737       9.618       9.462       9.291       9.125       8.918       8.659    
        8.437       8.276       8.091       7.890       7.603       7.286       6.974       6.680       6.509       6.396    
        6.238       6.075       5.971       5.872       5.745       5.518       5.272       5.112       4.992       4.852    
        4.680       4.513       4.322       4.134       3.950       3.747       3.530       3.304       2.997       2.688    
        2.442       2.245       2.106       1.962       1.756       1.526       1.268      0.9191      0.4502       0.000    
  40    10.00       9.892       9.812       9.725       9.606       9.444       9.268       9.101       8.925       8.711    
        8.528       8.390       8.169       7.857       7.500       7.148       6.832       6.627       6.508       6.380    
        6.210       6.067       5.971       5.860       5.712       5.530       5.357       5.192       5.047       4.917    
        4.758       4.569       4.373       4.194       4.021       3.816       3.581       3.352       3.018       2.681    
        2.457       2.292       2.147       2.023       1.815       1.558       1.321      0.9553      0.4718       0.000    
  41    10.00       9.901       9.807       9.711       9.580       9.434       9.280       9.131       8.962       8.772    
        8.599       8.436       8.146       7.756       7.363       7.043       6.792       6.614       6.494       6.351    
        6.180       6.056       5.955       5.836       5.703       5.567       5.436       5.278       5.106       4.956    
        4.811       4.629       4.430       4.265       4.083       3.881       3.641       3.322       2.952       2.691    
        2.509       2.337       2.202       2.046       1.826       1.572       1.362       1.014      0.5194       0.000    
  42    10.00       9.904       9.801       9.712       9.599       9.462       9.310       9.144       8.994       8.848    
        8.645       8.361       8.000       7.600       7.247       6.998       6.780       6.613       6.474       6.304    
        6.146       6.033       5.931       5.843       5.727       5.625       5.502       5.323       5.140       5.004    
        4.874       4.677       4.462       4.307       4.151       3.924       3.616       3.234       2.904       2.704    
        2.558       2.412       2.245       2.042       1.814       1.609       1.397       1.056      0.5435       0.000    
  43    10.00       9.906       9.811       9.721       9.631       9.510       9.359       9.196       9.034       8.830    
        8.546       8.221       7.852       7.466       7.190       6.982       6.776       6.603       6.437       6.269    
        6.120       6.014       5.936       5.867       5.764       5.652       5.534       5.359       5.194       5.082    
        4.917       4.700       4.497       4.343       4.165       3.888       3.525       3.156       2.926       2.768    
        2.613       2.455       2.251       2.032       1.823       1.625       1.435       1.053      0.4745       0.000    
  44    10.00       9.900       9.814       9.736       9.637       9.545       9.417       9.221       9.006       8.727    
        8.441       8.099       7.696       7.415       7.200       6.971       6.747       6.552       6.373       6.223    
        6.115       6.029       5.954       5.882       5.794       5.680       5.541       5.403       5.274       5.131    
        4.973       4.777       4.548       4.330       4.121       3.838       3.460       3.140       2.955       2.802    
        2.653       2.478       2.275       2.079       1.860       1.640       1.392      0.9019      0.3987       0.000    
  45    10.00       9.900       9.830       9.740       9.647       9.565       9.381       9.159       8.908       8.634    
        8.393       7.985       7.609       7.398       7.181       6.932       6.680       6.481       6.323       6.213    
        6.136       6.059       5.980       5.893       5.798       5.695       5.578       5.460       5.355       5.209    
        5.019       4.809       4.577       4.314       4.076       3.769       3.413       3.160       3.008       2.854    
        2.661       2.460       2.281       2.104       1.913       1.676       1.256      0.7563      0.3831       0.000    
  46    10.00       9.918       9.842       9.747       9.645       9.492       9.299       9.116       8.887       8.618    
        8.273       7.897       7.595       7.333       7.111       6.865       6.614       6.459       6.339       6.238    
        6.166       6.094       6.001       5.898       5.804       5.712       5.616       5.511       5.406       5.272    
        5.095       4.876       4.618       4.322       3.990       3.659       3.399       3.226       3.056       2.879    
        2.657       2.447       2.269       2.126       1.921       1.591       1.126      0.7127      0.3621       0.000    
  47    10.00       9.936       9.866       9.767       9.592       9.407       9.242       9.086       8.881       8.546    
        8.174       7.824       7.534       7.314       7.076       6.803       6.588       6.449       6.354       6.270    
        6.193       6.111       6.019       5.918       5.824       5.744       5.659       5.555       5.433       5.301    
        5.145       4.951       4.619       4.226       3.914       3.669       3.442       3.294       3.138       2.892    
        2.627       2.406       2.240       2.124       1.867       1.473       1.046      0.6861      0.3522       0.000    
  48    10.00       9.944       9.870       9.723       9.546       9.392       9.216       9.059       8.840       8.488    
        8.082       7.765       7.531       7.267       6.991       6.747       6.584       6.449       6.358       6.296    
        6.219       6.120       6.019       5.931       5.856       5.787       5.706       5.591       5.447       5.294    
        5.133       4.911       4.568       4.245       3.971       3.727       3.515       3.347       3.146       2.852    
        2.572       2.394       2.255       2.037       1.694       1.341      0.9992      0.6912      0.3719       0.000    
  49    10.00       9.941       9.836       9.704       9.560       9.381       9.204       9.027       8.757       8.384    
        8.034       7.738       7.455       7.205       6.993       6.762       6.552       6.430       6.370       6.310    
        6.238       6.126       6.014       5.941       5.879       5.825       5.734       5.595       5.433       5.286    
        5.117       4.846       4.556       4.339       4.088       3.803       3.546       3.343       3.111       2.797    
        2.571       2.415       2.207       1.879       1.574       1.285      0.9881      0.6913      0.3708       0.000    
  50    10.00       9.933       9.824       9.689       9.559       9.392       9.194       8.973       8.688       8.394    
        8.029       7.658       7.395       7.196       7.016       6.756       6.524       6.432       6.378       6.318    
        6.246       6.131       6.017       5.945       5.893       5.843       5.740       5.581       5.417       5.277    
        5.104       4.825       4.600       4.406       4.143       3.861       3.592       3.314       2.996       2.733    
        2.616       2.439       2.119       1.790       1.562       1.283       1.002      0.6772      0.3019       0.000    

 HEAD WILL BE SAVED ON UNIT   51 AT END OF TIME STEP  79, STRESS PERIOD    2

 DRAWDOWN WILL BE SAVED ON UNIT   52 AT END OF TIME STEP  79, STRESS PERIOD    2
1
  VOLUMETRIC BUDGET FOR ENTIRE MODEL AT END OF TIME STEP 79 IN STRESS PERIOD   2
  ------------------------------------------------------------------------------

     CUMULATIVE VOLUMES      L**3       RATES FOR THIS TIME STEP      L**3/T
     ------------------                 ------------------------

           IN:                                      IN:
           ---                                      ---
             STORAGE =       37098.8281               STORAGE =         404.4125
       CONSTANT HEAD =       49785.1875         CONSTANT HEAD =         673.8281
               WELLS =           0.0000                 WELLS =           0.0000

            TOTAL IN =       86884.0156              TOTAL IN =        1078.2405

          OUT:                                     OUT:
          ----                                     ----
             STORAGE =       9.4320E-03               STORAGE =           0.0000
       CONSTANT HEAD =       47384.0039         CONSTANT HEAD =         578.2407
               WELLS =       39500.0000                 WELLS =         500.0000

           TOTAL OUT =       86884.0156             TOTAL OUT =        1078.2407

            IN - OUT =           0.0000              IN - OUT =      -2.4414E-04

 PERCENT DISCREPANCY =           0.00     PERCENT DISCREPANCY =           0.00






          TIME SUMMARY AT END OF TIME STEP  79 IN STRESS PERIOD    2
                    SECONDS     MINUTES      HOURS       DAYS        YEARS
                    -----------------------------------------------------------
   TIME STEP LENGTH  86400.      1440.0      24.000      1.0000     2.73785E-03
 STRESS PERIOD TIME 6.82560E+06 1.13760E+05  1896.0      79.000     0.21629    
         TOTAL TIME 6.91200E+06 1.15200E+05  1920.0      80.000     0.21903    
1
 
 SOLVING FOR HEAD 

 OUTPUT CONTROL FOR STRESS PERIOD    2   TIME STEP  80
    SAVE HEAD FOR ALL LAYERS
    SAVE DRAWDOWN FOR ALL LAYERS
    SAVE BUDGET
    PRINT HEAD FOR ALL LAYERS
    PRINT BUDGET
 UBDSV1 SAVING "         STORAGE" ON UNIT  53 AT TIME STEP 80, STRESS PERIOD   2
 UBDSV2 SAVING "   CONSTANT HEAD" ON UNIT  53 AT TIME STEP 80, STRESS PERIOD   2
 UBDSV1 SAVING "FLOW RIGHT FACE " ON UNIT  53 AT TIME STEP 80, STRESS PERIOD   2
 UBDSV1 SAVING "FLOW FRONT FACE " ON UNIT  53 AT TIME STEP 80, STRESS PERIOD   2
1
              HEAD IN LAYER   1 AT END OF TIME STEP  80 IN STRESS PERIOD    2
  ---------------------------------------------------------------------------

            1           2           3           4           5           6           7           8           9          10
           11          12          13          14          15          16          17          18          19          20
           21          22          23          24          25          26          27          28          29          30
           31          32          33          34          35          36          37          38          39          40
           41          42          43          44          45          46          47          48          49          50
 ........................................................................................................................
   1    10.00       9.954       9.889       9.814       9.742       9.660       9.582       9.505       9.408       9.314    
        9.240       9.168       9.095       9.024       8.909       8.771       8.616       8.495       8.432       8.360    
        8.274       8.206       8.140       8.064       7.963       7.765       7.542       7.387       7.236       7.094    
        6.911       6.617       6.242       5.825       5.393       4.934       4.481       4.103       3.611       3.076    
        2.637       2.218       1.753       1.364       1.125      0.9222      0.7620      0.6460      0.4336       0.000    
   2    10.00       9.953       9.894       9.819       9.745       9.672       9.595       9.494       9.388       9.310    
        9.247       9.186       9.124       9.036       8.904       8.759       8.614       8.494       8.430       8.349    
        8.263       8.211       8.158       8.078       7.950       7.756       7.553       7.394       7.241       7.104    
        6.899       6.591       6.196       5.721       5.261       4.817       4.424       4.060       3.559       3.041    
        2.601       2.130       1.707       1.402       1.177       1.004      0.8053      0.6287      0.3508       0.000    
   3    10.00       9.947       9.888       9.821       9.756       9.682       9.583       9.476       9.402       9.332    
        9.261       9.205       9.151       9.065       8.930       8.751       8.593       8.496       8.421       8.338    
        8.268       8.214       8.159       8.052       7.912       7.738       7.562       7.436       7.259       7.079    
        6.821       6.455       6.002       5.541       5.134       4.723       4.339       3.946       3.426       2.946    
        2.570       2.138       1.752       1.474       1.252       1.072      0.8375      0.5617      0.2547       0.000    
   4    10.00       9.947       9.888       9.824       9.750       9.665       9.562       9.481       9.416       9.344    
        9.282       9.235       9.175       9.078       8.947       8.756       8.591       8.500       8.416       8.342    
        8.266       8.199       8.128       8.015       7.876       7.720       7.560       7.404       7.246       7.042    
        6.716       6.228       5.746       5.397       5.062       4.638       4.177       3.717       3.301       2.942    
        2.592       2.193       1.831       1.581       1.332       1.104      0.8134      0.5050      0.2420       0.000    
   5    10.00       9.943       9.884       9.811       9.737       9.657       9.565       9.495       9.428       9.361    
        9.307       9.261       9.181       9.068       8.922       8.748       8.608       8.509       8.425       8.325    
        8.234       8.161       8.074       7.964       7.840       7.679       7.519       7.375       7.217       6.965    
        6.493       5.944       5.558       5.286       4.954       4.498       4.023       3.608       3.300       2.976    
        2.635       2.270       1.913       1.682       1.415       1.086      0.7401      0.4501      0.2264       0.000    
   6    10.00       9.935       9.865       9.804       9.737       9.650       9.572       9.512       9.441       9.378    
        9.326       9.271       9.170       9.042       8.914       8.769       8.628       8.512       8.400       8.284    
        8.192       8.106       8.030       7.931       7.772       7.613       7.485       7.338       7.116       6.731    
        6.207       5.708       5.388       5.155       4.854       4.403       3.934       3.589       3.330       3.039    
        2.730       2.411       2.048       1.739       1.386       1.024      0.6532      0.3881      0.2137       0.000    
   7    10.00       9.922       9.854       9.798       9.728       9.655       9.586       9.529       9.464       9.401    
        9.338       9.253       9.143       9.022       8.901       8.786       8.638       8.479       8.350       8.236    
        8.140       8.057       7.991       7.865       7.702       7.569       7.438       7.238       6.874       6.379    
        5.881       5.479       5.265       5.058       4.710       4.286       3.973       3.642       3.363       3.176    
        2.886       2.546       2.120       1.679       1.284      0.8881      0.5620      0.3906      0.2011       0.000    
   8    10.00       9.921       9.860       9.796       9.725       9.661       9.601       9.542       9.482       9.422    
        9.339       9.231       9.121       9.006       8.894       8.765       8.578       8.411       8.305       8.196    
        8.087       8.017       7.918       7.781       7.638       7.499       7.276       6.962       6.500       6.066    
        5.697       5.393       5.199       4.962       4.589       4.242       3.960       3.717       3.505       3.292    
        3.010       2.583       2.062       1.591       1.180      0.8304      0.5944      0.3823      0.1833       0.000    
   9    10.00       9.934       9.859       9.789       9.736       9.683       9.622       9.560       9.494       9.429    
        9.332       9.208       9.089       8.974       8.854       8.700       8.518       8.364       8.251       8.138    
        8.042       7.950       7.816       7.685       7.551       7.377       7.052       6.631       6.198       5.882    
        5.581       5.333       5.121       4.827       4.484       4.195       3.983       3.807       3.618       3.386    
        3.047       2.582       2.052       1.586       1.187      0.8479      0.5993      0.3854      0.1971       0.000    
  10    10.00       9.931       9.853       9.795       9.746       9.694       9.639       9.586       9.508       9.412    
        9.294       9.164       9.049       8.942       8.817       8.627       8.436       8.302       8.198       8.093    
        8.003       7.875       7.726       7.577       7.420       7.164       6.744       6.308       5.943       5.691    
        5.499       5.292       5.033       4.737       4.421       4.183       4.025       3.873       3.670       3.402    
        3.015       2.534       2.051       1.654       1.282      0.9318      0.6175      0.4090      0.2199       0.000    
  11    10.00       9.916       9.853       9.805       9.757       9.712       9.662       9.587       9.480       9.372    
        9.253       9.126       9.019       8.889       8.718       8.537       8.380       8.261       8.166       8.059    
        7.924       7.759       7.556       7.386       7.119       6.759       6.403       6.085       5.783       5.598    
        5.451       5.185       4.905       4.661       4.422       4.243       4.081       3.887       3.636       3.312    
        2.949       2.579       2.118       1.729       1.376       1.029      0.6930      0.4015      0.1684       0.000    
  12    10.00       9.919       9.860       9.809       9.768       9.722       9.664       9.558       9.434       9.330    
        9.219       9.086       8.956       8.800       8.650       8.483       8.331       8.229       8.122       7.974    
        7.745       7.498       7.258       7.019       6.662       6.392       6.193       5.883       5.636       5.501    
        5.335       5.085       4.858       4.634       4.466       4.296       4.093       3.857       3.552       3.229    
        2.924       2.591       2.147       1.766       1.436       1.074      0.7280      0.3781      0.1255       0.000    
  13    10.00       9.934       9.878       9.825       9.776       9.721       9.626       9.505       9.388       9.282    
        9.156       9.025       8.890       8.727       8.562       8.405       8.294       8.167       8.025       7.727    
        7.381       7.120       6.855       6.537       6.264       6.137       5.914       5.641       5.510       5.387    
        5.192       4.980       4.802       4.640       4.497       4.339       4.098       3.782       3.491       3.190    
        2.900       2.558       2.083       1.730       1.446       1.062      0.6677      0.3256      9.9682E-02   0.000    
  14    10.00       9.949       9.901       9.844       9.776       9.684       9.561       9.439       9.333       9.216    
        9.087       8.965       8.811       8.640       8.493       8.357       8.187       8.020       7.735       7.293    
        6.961       6.708       6.357       6.110       5.985       5.871       5.651       5.485       5.356       5.228    
        5.061       4.913       4.790       4.653       4.500       4.346       4.074       3.732       3.435       3.125    
        2.832       2.407       1.957       1.681       1.359       1.014      0.6666      0.3006      8.5628E-02   0.000    
  15    10.00       9.959       9.909       9.845       9.763       9.629       9.480       9.372       9.273       9.156    
        9.055       8.929       8.730       8.535       8.399       8.185       7.969       7.794       7.357       6.875    
        6.577       6.241       5.947       5.857       5.794       5.649       5.462       5.308       5.210       5.112    
        4.988       4.882       4.783       4.663       4.515       4.329       4.011       3.634       3.323       3.044    
        2.731       2.306       1.954       1.610       1.229      0.9264      0.5943      0.2749      9.3012E-02   0.000    
  16    10.00       9.966       9.912       9.832       9.712       9.552       9.418       9.332       9.245       9.128    
        9.006       8.818       8.569       8.380       8.184       7.937       7.793       7.435       6.824       6.405    
        6.146       5.861       5.758       5.708       5.589       5.401       5.257       5.183       5.139       5.057    
        4.953       4.859       4.774       4.653       4.475       4.220       3.859       3.538       3.297       3.008    
        2.647       2.230       1.853       1.480       1.153      0.8187      0.5319      0.2770      9.8907E-02   0.000    
  17    10.00       9.961       9.895       9.789       9.652       9.486       9.368       9.293       9.187       9.062    
        8.843       8.579       8.371       8.178       7.925       7.679       7.376       6.805       6.302       6.044    
        5.843       5.695       5.625       5.502       5.317       5.185       5.145       5.125       5.082       4.999    
        4.910       4.828       4.739       4.615       4.356       4.026       3.749       3.546       3.316       2.968    
        2.513       2.108       1.759       1.410       1.032      0.6818      0.4526      0.2510      0.1046       0.000    
  18    10.00       9.944       9.859       9.736       9.555       9.415       9.332       9.219       9.091       8.902    
        8.622       8.403       8.208       7.914       7.585       7.246       6.823       6.331       6.026       5.831    
        5.680       5.552       5.438       5.272       5.146       5.107       5.091       5.069       5.012       4.934    
        4.859       4.777       4.664       4.472       4.206       3.944       3.734       3.568       3.279       2.852    
        2.416       1.996       1.645       1.318      0.9561      0.6278      0.3822      0.2096      9.7839E-02   0.000    
  19    10.00       9.925       9.827       9.646       9.466       9.384       9.278       9.132       8.975       8.760    
        8.512       8.296       7.982       7.563       7.222       6.891       6.440       6.044       5.853       5.727    
        5.568       5.406       5.276       5.138       5.072       5.054       5.032       4.988       4.918       4.851    
        4.778       4.688       4.540       4.348       4.137       3.919       3.742       3.531       3.120       2.701    
        2.357       1.928       1.550       1.232      0.8772      0.5651      0.3436      0.1988      9.9528E-02   0.000    
  20    10.00       9.903       9.752       9.564       9.432       9.338       9.220       9.063       8.876       8.676    
        8.417       8.095       7.670       7.287       6.986       6.593       6.186       5.985       5.825       5.653    
        5.480       5.311       5.152       5.051       5.006       4.969       4.918       4.872       4.804       4.743    
        4.673       4.583       4.437       4.274       4.088       3.908       3.721       3.392       2.964       2.611    
        2.231       1.815       1.480       1.163      0.8333      0.5076      0.2984      0.2005      0.1013       0.000    
  21    10.00       9.847       9.691       9.537       9.399       9.292       9.162       8.962       8.772       8.578    
        8.241       7.835       7.438       7.126       6.803       6.428       6.139       5.964       5.780       5.592    
        5.382       5.189       5.049       4.946       4.869       4.801       4.759       4.718       4.647       4.600    
        4.553       4.460       4.339       4.202       4.041       3.870       3.608       3.278       2.911       2.493    
        2.112       1.723       1.433       1.143      0.7244      0.4289      0.3058      0.2232      0.1073       0.000    
  22    10.00       9.824       9.641       9.490       9.372       9.245       9.054       8.854       8.685       8.429    
        8.074       7.651       7.310       7.050       6.698       6.352       6.109       5.929       5.747       5.520    
        5.278       5.083       4.901       4.741       4.637       4.588       4.555       4.499       4.476       4.449    
        4.414       4.345       4.257       4.133       3.987       3.822       3.551       3.227       2.796       2.386    
        2.058       1.705       1.385      0.9540      0.5973      0.4302      0.3236      0.2154      8.5580E-02   0.000    
  23    10.00       9.784       9.605       9.480       9.351       9.161       8.946       8.789       8.576       8.310    
        7.949       7.573       7.310       6.982       6.603       6.302       6.097       5.932       5.726       5.454    
        5.196       4.965       4.725       4.439       4.185       4.135       4.208       4.243       4.292       4.309    
        4.295       4.252       4.178       4.080       3.942       3.771       3.521       3.119       2.668       2.331    
        2.017       1.617       1.156      0.7813      0.5833      0.4419      0.3235      0.2054      9.5671E-02   0.000    
  24    10.00       9.754       9.624       9.480       9.297       9.089       8.919       8.749       8.540       8.233    
        7.902       7.610       7.320       6.925       6.525       6.287       6.117       5.946       5.697       5.422    
        5.166       4.902       4.533       3.875       2.885       3.215       3.667       3.953       4.107       4.170    
        4.190       4.165       4.118       4.018       3.884       3.712       3.403       2.980       2.599       2.243    
        1.861       1.437       1.027      0.7469      0.5814      0.4400      0.3165      0.2399      0.1321       0.000    
  25    10.00       9.785       9.649       9.474       9.283       9.096       8.922       8.761       8.505       8.201    
        7.923       7.642       7.288       6.855       6.544       6.327       6.138       5.935       5.703       5.449    
        5.172       4.908       4.236       2.835     -0.3404       2.233       3.206       3.694       3.954       4.074    
        4.110       4.102       4.054       3.939       3.799       3.589       3.268       2.863       2.519       2.134    
        1.694       1.294      0.9596      0.7408      0.6057      0.4737      0.3463      0.2553      0.1667       0.000    
  26    10.00       9.816       9.687       9.500       9.303       9.139       8.960       8.756       8.495       8.257    
        8.018       7.644       7.198       6.830       6.604       6.408       6.182       5.920       5.674       5.455    
        5.242       4.951       4.330       3.312       2.243       2.763       3.326       3.682       3.902       4.031    
        4.065       4.055       3.990       3.878       3.743       3.516       3.098       2.723       2.432       1.961    
        1.482       1.150      0.9524      0.8047      0.6608      0.5142      0.3814      0.2795      0.1669       0.000    
  27    10.00       9.857       9.700       9.541       9.365       9.176       8.998       8.802       8.568       8.341    
        8.021       7.582       7.196       6.896       6.696       6.476       6.180       5.892       5.691       5.517    
        5.338       5.038       4.571       4.009       3.409       3.426       3.624       3.810       3.952       4.031    
        4.048       4.029       3.965       3.850       3.667       3.312       2.916       2.619       2.169       1.702    
        1.356       1.138      0.9934      0.8683      0.7356      0.5665      0.4081      0.3055      0.2053       0.000    
  28    10.00       9.870       9.738       9.586       9.427       9.249       9.065       8.867       8.647       8.386    
        7.996       7.598       7.263       6.974       6.767       6.544       6.291       6.008       5.740       5.567    
        5.406       5.191       4.879       4.456       4.076       3.904       3.915       4.000       4.037       4.064    
        4.056       4.021       3.944       3.780       3.507       3.133       2.792       2.383       1.935       1.622    
        1.367       1.186       1.042      0.9181      0.7815      0.6197      0.4628      0.3478      0.2121       0.000    
  29    10.00       9.876       9.751       9.638       9.485       9.322       9.146       8.948       8.716       8.367    
        7.985       7.637       7.320       7.081       6.843       6.602       6.371       6.144       5.884       5.657    
        5.485       5.302       5.087       4.827       4.480       4.294       4.223       4.193       4.175       4.136    
        4.083       4.009       3.907       3.684       3.351       3.007       2.644       2.228       1.882       1.652    
        1.442       1.242       1.084      0.9634      0.8303      0.6643      0.5024      0.3679      0.2145       0.000    
  30    10.00       9.888       9.784       9.685       9.552       9.403       9.246       9.026       8.738       8.385    
        7.991       7.639       7.374       7.139       6.905       6.671       6.478       6.282       6.046       5.804    
        5.597       5.429       5.242       5.053       4.832       4.630       4.547       4.417       4.342       4.235    
        4.114       3.986       3.830       3.591       3.308       2.975       2.596       2.207       1.950       1.735    
        1.497       1.300       1.148       1.003      0.8533      0.7061      0.5362      0.3840      0.2320       0.000    
  31    10.00       9.907       9.818       9.725       9.629       9.512       9.342       9.085       8.753       8.387    
        8.008       7.681       7.429       7.190       6.981       6.766       6.562       6.412       6.185       5.952    
        5.752       5.577       5.412       5.240       5.099       4.938       4.780       4.632       4.479       4.324    
        4.141       3.958       3.792       3.590       3.304       2.952       2.586       2.260       2.048       1.855    
        1.607       1.379       1.202       1.048      0.8989      0.7427      0.5718      0.4109      0.2262       0.000    
  32    10.00       9.922       9.854       9.773       9.680       9.575       9.408       9.119       8.810       8.476    
        8.077       7.737       7.487       7.263       7.053       6.872       6.691       6.501       6.318       6.095    
        5.885       5.695       5.534       5.375       5.245       5.132       4.956       4.783       4.584       4.373    
        4.172       3.982       3.793       3.593       3.320       2.998       2.689       2.400       2.173       1.955    
        1.725       1.486       1.296       1.115      0.9435      0.8015      0.6261      0.4127      0.2051       0.000    
  33    10.00       9.933       9.878       9.813       9.723       9.605       9.394       9.116       8.857       8.551    
        8.164       7.828       7.570       7.327       7.134       6.978       6.817       6.629       6.425       6.222    
        6.002       5.798       5.610       5.454       5.348       5.235       5.068       4.859       4.654       4.449    
        4.246       4.063       3.866       3.608       3.347       3.053       2.786       2.553       2.316       2.079    
        1.864       1.636       1.426       1.236       1.044      0.8742      0.6767      0.4241      0.1998       0.000    
  34    10.00       9.940       9.903       9.847       9.737       9.576       9.374       9.169       8.905       8.574    
        8.236       7.910       7.636       7.395       7.220       7.095       6.925       6.736       6.515       6.324    
        6.125       5.886       5.698       5.552       5.445       5.315       5.124       4.936       4.721       4.498    
        4.327       4.157       3.979       3.722       3.446       3.173       2.927       2.718       2.472       2.232    
        2.023       1.813       1.589       1.394       1.189      0.9891      0.7360      0.4732      0.2495       0.000    
  35    10.00       9.951       9.908       9.839       9.705       9.535       9.389       9.215       8.975       8.621    
        8.263       7.964       7.691       7.481       7.328       7.189       7.014       6.807       6.595       6.384    
        6.202       5.992       5.800       5.663       5.547       5.419       5.212       4.982       4.756       4.544    
        4.412       4.255       4.061       3.865       3.624       3.330       3.077       2.904       2.652       2.378    
        2.180       1.968       1.755       1.563       1.332       1.109      0.8523      0.5691      0.2844       0.000    
  36    10.00       9.948       9.889       9.811       9.679       9.519       9.388       9.229       8.989       8.662    
        8.292       7.971       7.765       7.594       7.450       7.280       7.072       6.873       6.651       6.397    
        6.205       6.040       5.874       5.755       5.639       5.486       5.272       5.032       4.801       4.600    
        4.466       4.333       4.149       3.960       3.752       3.483       3.224       3.030       2.808       2.509    
        2.285       2.072       1.854       1.695       1.472       1.223      0.9659      0.6693      0.3405       0.000    
  37    10.00       9.933       9.869       9.784       9.652       9.506       9.360       9.207       8.989       8.641    
        8.269       8.003       7.872       7.711       7.524       7.356       7.124       6.885       6.623       6.373    
        6.217       6.085       5.929       5.809       5.676       5.499       5.299       5.056       4.847       4.686    
        4.538       4.389       4.198       4.030       3.812       3.554       3.348       3.158       2.909       2.612    
        2.344       2.135       1.960       1.780       1.569       1.336       1.089      0.7566      0.4100       0.000    
  38    10.00       9.926       9.844       9.755       9.633       9.492       9.332       9.173       8.944       8.622    
        8.337       8.121       7.954       7.810       7.604       7.353       7.096       6.819       6.541       6.374    
        6.251       6.095       5.953       5.846       5.708       5.509       5.270       5.049       4.917       4.782    
        4.619       4.448       4.261       4.087       3.873       3.633       3.445       3.251       2.955       2.644    
        2.410       2.214       2.036       1.856       1.667       1.442       1.187      0.8664      0.4496       0.000    
  39    10.00       9.907       9.824       9.736       9.618       9.461       9.290       9.123       8.916       8.657    
        8.434       8.273       8.087       7.885       7.598       7.280       6.969       6.675       6.504       6.391    
        6.233       6.070       5.966       5.867       5.740       5.513       5.268       5.109       4.988       4.849    
        4.676       4.509       4.319       4.131       3.947       3.744       3.527       3.302       2.995       2.687    
        2.440       2.244       2.105       1.961       1.755       1.525       1.267      0.9187      0.4500       0.000    
  40    10.00       9.892       9.812       9.724       9.605       9.443       9.267       9.099       8.923       8.708    
        8.525       8.387       8.165       7.853       7.496       7.143       6.828       6.623       6.504       6.376    
        6.205       6.062       5.966       5.856       5.708       5.526       5.353       5.188       5.044       4.914    
        4.755       4.566       4.371       4.191       4.019       3.813       3.579       3.350       3.017       2.679    
        2.456       2.291       2.146       2.022       1.814       1.558       1.321      0.9549      0.4716       0.000    
  41    10.00       9.900       9.807       9.711       9.579       9.433       9.279       9.129       8.961       8.770    
        8.596       8.433       8.143       7.753       7.359       7.040       6.788       6.611       6.490       6.347    
        6.176       6.053       5.951       5.832       5.700       5.564       5.433       5.275       5.103       4.953    
        4.808       4.627       4.428       4.262       4.081       3.879       3.639       3.320       2.950       2.690    
        2.507       2.336       2.201       2.045       1.825       1.571       1.362       1.013      0.5192       0.000    
  42    10.00       9.904       9.801       9.712       9.598       9.461       9.309       9.143       8.992       8.846    
        8.643       8.359       7.998       7.597       7.244       6.995       6.777       6.609       6.471       6.300    
        6.143       6.030       5.928       5.840       5.724       5.622       5.499       5.320       5.137       5.001    
        4.871       4.675       4.460       4.304       4.149       3.922       3.614       3.232       2.902       2.703    
        2.557       2.411       2.244       2.041       1.813       1.608       1.396       1.056      0.5433       0.000    
  43    10.00       9.906       9.811       9.721       9.631       9.509       9.358       9.194       9.032       8.828    
        8.544       8.219       7.850       7.464       7.188       6.979       6.773       6.600       6.434       6.266    
        6.117       6.011       5.933       5.864       5.761       5.649       5.531       5.357       5.192       5.079    
        4.914       4.697       4.495       4.341       4.162       3.886       3.523       3.155       2.925       2.767    
        2.612       2.453       2.250       2.031       1.822       1.624       1.434       1.053      0.4743       0.000    
  44    10.00       9.900       9.814       9.736       9.637       9.545       9.417       9.220       9.005       8.726    
        8.439       8.097       7.694       7.413       7.198       6.968       6.744       6.549       6.370       6.220    
        6.113       6.026       5.951       5.879       5.791       5.677       5.538       5.400       5.271       5.128    
        4.971       4.774       4.545       4.328       4.119       3.836       3.458       3.138       2.954       2.801    
        2.652       2.477       2.274       2.078       1.859       1.640       1.391      0.9015      0.3985       0.000    
  45    10.00       9.900       9.829       9.740       9.647       9.565       9.380       9.159       8.907       8.633    
        8.392       7.983       7.607       7.396       7.179       6.929       6.678       6.478       6.320       6.211    
        6.133       6.056       5.977       5.891       5.796       5.692       5.576       5.457       5.352       5.206    
        5.016       4.807       4.575       4.312       4.074       3.767       3.411       3.159       3.006       2.853    
        2.660       2.458       2.280       2.103       1.912       1.675       1.255      0.7560      0.3830       0.000    
  46    10.00       9.918       9.842       9.747       9.645       9.492       9.299       9.115       8.886       8.617    
        8.271       7.895       7.593       7.330       7.108       6.863       6.612       6.456       6.337       6.235    
        6.163       6.092       5.999       5.895       5.801       5.709       5.614       5.508       5.403       5.270    
        5.093       4.874       4.616       4.320       3.988       3.657       3.397       3.225       3.055       2.878    
        2.656       2.446       2.268       2.125       1.921       1.591       1.126      0.7124      0.3620       0.000    
  47    10.00       9.936       9.866       9.767       9.592       9.406       9.241       9.085       8.880       8.545    
        8.172       7.823       7.532       7.312       7.074       6.801       6.585       6.446       6.352       6.268    
        6.191       6.108       6.017       5.915       5.821       5.741       5.656       5.552       5.431       5.299    
        5.143       4.949       4.617       4.224       3.912       3.667       3.440       3.292       3.136       2.891    
        2.626       2.405       2.239       2.123       1.866       1.472       1.046      0.6859      0.3521       0.000    
  48    10.00       9.944       9.870       9.722       9.546       9.392       9.216       9.058       8.839       8.487    
        8.081       7.764       7.529       7.265       6.989       6.745       6.582       6.446       6.355       6.293    
        6.216       6.117       6.016       5.928       5.853       5.785       5.703       5.588       5.445       5.291    
        5.130       4.909       4.566       4.243       3.969       3.726       3.513       3.346       3.145       2.851    
        2.571       2.393       2.254       2.036       1.693       1.340      0.9989      0.6910      0.3718       0.000    
  49    10.00       9.941       9.836       9.704       9.559       9.381       9.204       9.026       8.756       8.383    
        8.033       7.736       7.453       7.203       6.990       6.760       6.550       6.427       6.367       6.307    
        6.235       6.124       6.011       5.938       5.876       5.822       5.731       5.592       5.431       5.284    
        5.115       4.844       4.554       4.337       4.086       3.801       3.544       3.342       3.110       2.796    
        2.570       2.414       2.207       1.879       1.573       1.285      0.9878      0.6911      0.3706       0.000    
  50    10.00       9.933       9.824       9.689       9.558       9.392       9.194       8.972       8.687       8.393    
        8.027       7.656       7.393       7.194       7.014       6.754       6.521       6.430       6.376       6.316    
        6.244       6.129       6.014       5.943       5.890       5.840       5.738       5.579       5.415       5.275    
        5.102       4.823       4.598       4.404       4.142       3.859       3.590       3.313       2.995       2.732    
        2.615       2.438       2.119       1.790       1.562       1.283       1.002      0.6770      0.3018       0.000    

 HEAD WILL BE SAVED ON UNIT   51 AT END OF TIME STEP  80, STRESS PERIOD    2

 DRAWDOWN WILL BE SAVED ON UNIT   52 AT END OF TIME STEP  80, STRESS PERIOD    2
1
  VOLUMETRIC BUDGET FOR ENTIRE MODEL AT END OF TIME STEP 80 IN STRESS PERIOD   2
  ------------------------------------------------------------------------------

     CUMULATIVE VOLUMES      L**3       RATES FOR THIS TIME STEP      L**3/T
     ------------------                 ------------------------

           IN:                                      IN:
           ---                                      ---
             STORAGE =       37501.0977               STORAGE =         402.2682
       CONSTANT HEAD =       50460.5664         CONSTANT HEAD =         675.3799
               WELLS =           0.0000                 WELLS =           0.0000

            TOTAL IN =       87961.6641              TOTAL IN =        1077.6481

          OUT:                                     OUT:
          ----                                     ----
             STORAGE =       9.4320E-03               STORAGE =           0.0000
       CONSTANT HEAD =       47961.6523         CONSTANT HEAD =         577.6484
               WELLS =       40000.0000                 WELLS =         500.0000

           TOTAL OUT =       87961.6641             TOTAL OUT =        1077.6484

            IN - OUT =           0.0000              IN - OUT =      -3.6621E-04

 PERCENT DISCREPANCY =           0.00     PERCENT DISCREPANCY =           0.00






          TIME SUMMARY AT END OF TIME STEP  80 IN STRESS PERIOD    2
                    SECONDS     MINUTES      HOURS       DAYS        YEARS
                    -----------------------------------------------------------
   TIME STEP LENGTH  86400.      1440.0      24.000      1.0000     2.73785E-03
 STRESS PERIOD TIME 6.91200E+06 1.15200E+05  1920.0      80.000     0.21903    
         TOTAL TIME 6.99840E+06 1.16640E+05  1944.0      81.000     0.22177    
1
 
 SOLVING FOR HEAD 

 OUTPUT CONTROL FOR STRESS PERIOD    2   TIME STEP  81
    SAVE HEAD FOR ALL LAYERS
    SAVE DRAWDOWN FOR ALL LAYERS
    SAVE BUDGET
    PRINT HEAD FOR ALL LAYERS
    PRINT BUDGET
 UBDSV1 SAVING "         STORAGE" ON UNIT  53 AT TIME STEP 81, STRESS PERIOD   2
 UBDSV2 SAVING "   CONSTANT HEAD" ON UNIT  53 AT TIME STEP 81, STRESS PERIOD   2
 UBDSV1 SAVING "FLOW RIGHT FACE " ON UNIT  53 AT TIME STEP 81, STRESS PERIOD   2
 UBDSV1 SAVING "FLOW FRONT FACE " ON UNIT  53 AT TIME STEP 81, STRESS PERIOD   2
1
              HEAD IN LAYER   1 AT END OF TIME STEP  81 IN STRESS PERIOD    2
  ---------------------------------------------------------------------------

            1           2           3           4           5           6           7           8           9          10
           11          12          13          14          15          16          17          18          19          20
           21          22          23          24          25          26          27          28          29          30
           31          32          33          34          35          36          37          38          39          40
           41          42          43          44          45          46          47          48          49          50
 ........................................................................................................................
   1    10.00       9.954       9.888       9.814       9.741       9.659       9.581       9.504       9.407       9.312    
        9.238       9.167       9.093       9.022       8.906       8.768       8.613       8.492       8.429       8.356    
        8.270       8.202       8.136       8.060       7.959       7.761       7.537       7.382       7.231       7.090    
        6.906       6.613       6.237       5.821       5.389       4.931       4.477       4.100       3.608       3.073    
        2.635       2.216       1.751       1.362       1.123      0.9212      0.7612      0.6453      0.4332       0.000    
   2    10.00       9.953       9.893       9.818       9.745       9.672       9.594       9.493       9.387       9.309    
        9.245       9.184       9.122       9.034       8.902       8.757       8.611       8.491       8.427       8.346    
        8.259       8.208       8.154       8.075       7.946       7.752       7.549       7.389       7.237       7.099    
        6.894       6.586       6.192       5.717       5.257       4.813       4.421       4.056       3.556       3.038    
        2.598       2.128       1.705       1.401       1.176       1.003      0.8044      0.6281      0.3504       0.000    
   3    10.00       9.947       9.887       9.820       9.756       9.682       9.582       9.475       9.400       9.330    
        9.259       9.203       9.149       9.063       8.928       8.749       8.590       8.493       8.417       8.335    
        8.264       8.211       8.155       8.048       7.908       7.734       7.558       7.432       7.254       7.075    
        6.816       6.450       5.998       5.536       5.130       4.719       4.335       3.943       3.423       2.944    
        2.568       2.136       1.750       1.473       1.251       1.071      0.8367      0.5612      0.2544       0.000    
   4    10.00       9.947       9.888       9.823       9.750       9.664       9.561       9.480       9.415       9.343    
        9.280       9.234       9.173       9.076       8.944       8.753       8.588       8.497       8.412       8.338    
        8.262       8.195       8.124       8.011       7.872       7.716       7.556       7.400       7.241       7.037    
        6.711       6.224       5.742       5.392       5.057       4.634       4.173       3.713       3.298       2.939    
        2.589       2.190       1.829       1.580       1.331       1.103      0.8125      0.5045      0.2417       0.000    
   5    10.00       9.943       9.884       9.811       9.736       9.657       9.564       9.493       9.426       9.359    
        9.305       9.259       9.179       9.065       8.920       8.746       8.605       8.505       8.422       8.322    
        8.230       8.157       8.070       7.960       7.836       7.675       7.515       7.371       7.212       6.960    
        6.488       5.939       5.553       5.281       4.950       4.494       4.019       3.604       3.296       2.973    
        2.632       2.267       1.911       1.680       1.413       1.085      0.7393      0.4496      0.2262       0.000    
   6    10.00       9.935       9.865       9.804       9.736       9.649       9.571       9.511       9.440       9.376    
        9.325       9.269       9.168       9.040       8.912       8.766       8.624       8.509       8.397       8.280    
        8.188       8.102       8.026       7.927       7.767       7.609       7.480       7.334       7.111       6.726    
        6.202       5.703       5.383       5.150       4.849       4.399       3.930       3.585       3.326       3.036    
        2.727       2.408       2.046       1.737       1.384       1.023      0.6524      0.3877      0.2135       0.000    
   7    10.00       9.922       9.854       9.797       9.727       9.655       9.585       9.528       9.462       9.400    
        9.336       9.251       9.141       9.020       8.898       8.784       8.635       8.476       8.347       8.233    
        8.136       8.053       7.987       7.861       7.697       7.564       7.433       7.233       6.869       6.373    
        5.875       5.474       5.259       5.053       4.705       4.281       3.968       3.638       3.359       3.172    
        2.882       2.543       2.118       1.677       1.282      0.8871      0.5614      0.3902      0.2009       0.000    
   8    10.00       9.921       9.860       9.795       9.725       9.660       9.600       9.541       9.481       9.421    
        9.337       9.229       9.119       9.004       8.892       8.762       8.574       8.407       8.301       8.192    
        8.083       8.012       7.914       7.777       7.633       7.494       7.271       6.957       6.494       6.060    
        5.691       5.386       5.193       4.956       4.584       4.237       3.955       3.713       3.501       3.288    
        3.007       2.580       2.059       1.589       1.179      0.8294      0.5937      0.3819      0.1831       0.000    
   9    10.00       9.934       9.859       9.788       9.736       9.682       9.621       9.559       9.492       9.428    
        9.330       9.206       9.086       8.971       8.851       8.697       8.515       8.361       8.247       8.134    
        8.038       7.946       7.812       7.680       7.546       7.372       7.046       6.625       6.191       5.876    
        5.574       5.327       5.115       4.821       4.478       4.190       3.977       3.802       3.614       3.381    
        3.044       2.579       2.049       1.584       1.185      0.8469      0.5986      0.3849      0.1969       0.000    
  10    10.00       9.931       9.852       9.794       9.745       9.694       9.638       9.585       9.507       9.411    
        9.292       9.162       9.047       8.939       8.814       8.624       8.432       8.298       8.194       8.089    
        7.999       7.870       7.721       7.572       7.415       7.158       6.737       6.302       5.936       5.684    
        5.492       5.286       5.027       4.730       4.415       4.177       4.020       3.868       3.665       3.397    
        3.011       2.531       2.048       1.652       1.281      0.9307      0.6168      0.4086      0.2197       0.000    
  11    10.00       9.916       9.852       9.804       9.756       9.712       9.661       9.586       9.479       9.370    
        9.251       9.124       9.017       8.886       8.715       8.533       8.376       8.257       8.162       8.055    
        7.919       7.754       7.550       7.381       7.113       6.753       6.396       6.078       5.775       5.591    
        5.444       5.178       4.898       4.654       4.415       4.237       4.075       3.882       3.631       3.307    
        2.945       2.575       2.115       1.727       1.374       1.028      0.6922      0.4010      0.1682       0.000    
  12    10.00       9.918       9.859       9.809       9.768       9.721       9.663       9.557       9.432       9.328    
        9.217       9.083       8.953       8.797       8.647       8.479       8.327       8.225       8.118       7.969    
        7.740       7.492       7.252       7.013       6.655       6.384       6.186       5.875       5.628       5.493    
        5.327       5.078       4.850       4.627       4.459       4.289       4.087       3.851       3.547       3.224    
        2.919       2.588       2.144       1.764       1.434       1.072      0.7270      0.3776      0.1253       0.000    
  13    10.00       9.934       9.878       9.824       9.775       9.720       9.625       9.503       9.386       9.279    
        9.154       9.023       8.887       8.724       8.558       8.401       8.290       8.162       8.020       7.722    
        7.375       7.113       6.848       6.529       6.256       6.129       5.905       5.633       5.501       5.378    
        5.183       4.972       4.794       4.632       4.490       4.332       4.092       3.776       3.486       3.185    
        2.896       2.554       2.080       1.727       1.444       1.061      0.6668      0.3252      9.9541E-02   0.000    
  14    10.00       9.949       9.901       9.843       9.775       9.683       9.560       9.437       9.331       9.214    
        9.084       8.962       8.807       8.636       8.489       8.352       8.182       8.014       7.730       7.286    
        6.953       6.700       6.349       6.101       5.976       5.863       5.642       5.476       5.347       5.220    
        5.052       4.905       4.781       4.645       4.493       4.339       4.067       3.726       3.429       3.120    
        2.827       2.404       1.954       1.678       1.357       1.013      0.6656      0.3002      8.5500E-02   0.000    
  15    10.00       9.959       9.909       9.844       9.763       9.628       9.478       9.370       9.271       9.154    
        9.053       8.926       8.727       8.531       8.395       8.180       7.963       7.788       7.350       6.867    
        6.569       6.232       5.937       5.847       5.784       5.640       5.453       5.298       5.200       5.103    
        4.979       4.873       4.774       4.655       4.507       4.321       4.004       3.628       3.318       3.039    
        2.727       2.302       1.951       1.608       1.227      0.9249      0.5933      0.2745      9.2866E-02   0.000    
  16    10.00       9.966       9.911       9.832       9.711       9.551       9.416       9.330       9.242       9.125    
        9.003       8.814       8.565       8.375       8.179       7.931       7.787       7.428       6.816       6.396    
        6.136       5.851       5.749       5.698       5.579       5.392       5.247       5.173       5.129       5.047    
        4.944       4.849       4.765       4.644       4.466       4.213       3.852       3.532       3.291       3.003    
        2.642       2.226       1.850       1.477       1.151      0.8173      0.5311      0.2766      9.8746E-02   0.000    
  17    10.00       9.961       9.895       9.788       9.651       9.484       9.366       9.290       9.185       9.059    
        8.839       8.575       8.366       8.173       7.919       7.673       7.369       6.797       6.293       6.034    
        5.833       5.685       5.615       5.492       5.307       5.175       5.135       5.115       5.072       4.990    
        4.900       4.818       4.730       4.606       4.347       4.018       3.742       3.539       3.309       2.963    
        2.509       2.105       1.756       1.408       1.030      0.6806      0.4519      0.2506      0.1044       0.000    
  18    10.00       9.944       9.859       9.735       9.553       9.413       9.329       9.217       9.088       8.898    
        8.618       8.398       8.203       7.908       7.578       7.238       6.814       6.321       6.016       5.821    
        5.670       5.542       5.428       5.262       5.135       5.097       5.081       5.059       5.002       4.924    
        4.849       4.767       4.655       4.463       4.197       3.936       3.726       3.561       3.273       2.847    
        2.412       1.992       1.642       1.316      0.9544      0.6267      0.3815      0.2092      9.7672E-02   0.000    
  19    10.00       9.925       9.826       9.645       9.464       9.382       9.276       9.129       8.972       8.756    
        8.507       8.290       7.976       7.556       7.213       6.882       6.430       6.034       5.843       5.716    
        5.558       5.395       5.266       5.128       5.061       5.043       5.022       4.978       4.908       4.841    
        4.768       4.678       4.531       4.339       4.128       3.911       3.734       3.524       3.114       2.695    
        2.352       1.924       1.547       1.230      0.8756      0.5641      0.3430      0.1984      9.9356E-02   0.000    
  20    10.00       9.903       9.751       9.562       9.430       9.335       9.217       9.059       8.872       8.671    
        8.412       8.088       7.662       7.279       6.977       6.583       6.176       5.975       5.814       5.642    
        5.470       5.300       5.141       5.040       4.995       4.958       4.907       4.861       4.793       4.733    
        4.663       4.573       4.427       4.265       4.079       3.899       3.713       3.385       2.958       2.605    
        2.226       1.812       1.477       1.161      0.8318      0.5067      0.2979      0.2001      0.1011       0.000    
  21    10.00       9.846       9.690       9.535       9.396       9.290       9.159       8.958       8.768       8.573    
        8.235       7.828       7.430       7.117       6.794       6.418       6.129       5.954       5.770       5.581    
        5.371       5.178       5.039       4.935       4.858       4.790       4.748       4.707       4.636       4.589    
        4.542       4.449       4.329       4.192       4.031       3.861       3.599       3.270       2.904       2.488    
        2.108       1.719       1.431       1.141      0.7230      0.4282      0.3052      0.2228      0.1071       0.000    
  22    10.00       9.823       9.639       9.488       9.370       9.242       9.051       8.850       8.681       8.423    
        8.068       7.643       7.302       7.041       6.688       6.342       6.099       5.919       5.736       5.509    
        5.267       5.072       4.890       4.730       4.626       4.577       4.544       4.487       4.464       4.438    
        4.403       4.334       4.246       4.123       3.977       3.813       3.543       3.220       2.790       2.381    
        2.053       1.702       1.382      0.9522      0.5962      0.4295      0.3231      0.2150      8.5436E-02   0.000    
  23    10.00       9.783       9.604       9.478       9.349       9.158       8.942       8.785       8.571       8.304    
        7.942       7.566       7.302       6.973       6.593       6.292       6.087       5.922       5.715       5.443    
        5.185       4.954       4.714       4.428       4.174       4.124       4.197       4.231       4.280       4.297    
        4.284       4.241       4.167       4.070       3.932       3.762       3.513       3.112       2.662       2.326    
        2.013       1.614       1.153      0.7798      0.5823      0.4411      0.3230      0.2051      9.5515E-02   0.000    
  24    10.00       9.753       9.623       9.478       9.295       9.085       8.915       8.745       8.535       8.227    
        7.896       7.603       7.312       6.916       6.515       6.277       6.107       5.936       5.686       5.412    
        5.155       4.890       4.522       3.864       2.873       3.204       3.656       3.941       4.095       4.158    
        4.179       4.154       4.107       4.007       3.874       3.703       3.394       2.973       2.593       2.238    
        1.857       1.434       1.026      0.7456      0.5804      0.4392      0.3160      0.2395      0.1319       0.000    
  25    10.00       9.784       9.647       9.472       9.280       9.093       8.918       8.756       8.500       8.195    
        7.916       7.634       7.279       6.846       6.535       6.317       6.127       5.925       5.693       5.438    
        5.161       4.897       4.224       2.823     -0.3532       2.220       3.193       3.682       3.942       4.062    
        4.098       4.091       4.043       3.928       3.789       3.580       3.260       2.856       2.514       2.129    
        1.691       1.292      0.9580      0.7396      0.6047      0.4730      0.3458      0.2549      0.1664       0.000    
  26    10.00       9.816       9.686       9.498       9.300       9.136       8.956       8.752       8.489       8.252    
        8.011       7.637       7.190       6.821       6.594       6.398       6.172       5.909       5.663       5.445    
        5.231       4.940       4.319       3.301       2.231       2.751       3.314       3.670       3.890       4.019    
        4.054       4.044       3.979       3.868       3.733       3.507       3.091       2.717       2.427       1.957    
        1.479       1.148      0.9509      0.8035      0.6597      0.5134      0.3809      0.2791      0.1667       0.000    
  27    10.00       9.856       9.699       9.540       9.363       9.173       8.995       8.797       8.563       8.336    
        8.015       7.575       7.187       6.887       6.687       6.466       6.170       5.882       5.681       5.506    
        5.327       5.027       4.560       3.997       3.397       3.414       3.612       3.798       3.940       4.019    
        4.037       4.018       3.954       3.840       3.658       3.304       2.909       2.614       2.165       1.699    
        1.354       1.136      0.9919      0.8670      0.7345      0.5656      0.4075      0.3051      0.2050       0.000    
  28    10.00       9.870       9.737       9.585       9.425       9.246       9.061       8.863       8.643       8.381    
        7.989       7.590       7.254       6.966       6.758       6.535       6.281       5.997       5.730       5.556    
        5.395       5.180       4.868       4.445       4.064       3.892       3.903       3.988       4.025       4.052    
        4.044       4.010       3.934       3.770       3.498       3.126       2.786       2.379       1.932       1.619    
        1.365       1.184       1.041      0.9167      0.7804      0.6188      0.4621      0.3473      0.2118       0.000    
  29    10.00       9.876       9.750       9.637       9.483       9.320       9.143       8.944       8.711       8.362    
        7.978       7.630       7.312       7.073       6.834       6.593       6.361       6.134       5.873       5.647    
        5.474       5.292       5.076       4.815       4.469       4.283       4.211       4.181       4.163       4.125    
        4.073       3.999       3.897       3.675       3.344       3.001       2.639       2.224       1.879       1.649    
        1.440       1.240       1.083      0.9620      0.8291      0.6634      0.5017      0.3674      0.2142       0.000    
  30    10.00       9.887       9.783       9.684       9.551       9.401       9.243       9.023       8.734       8.380    
        7.985       7.632       7.366       7.131       6.896       6.662       6.468       6.272       6.037       5.794    
        5.586       5.418       5.231       5.042       4.820       4.619       4.536       4.406       4.331       4.224    
        4.104       3.977       3.822       3.583       3.302       2.970       2.591       2.204       1.947       1.733    
        1.495       1.298       1.147       1.002      0.8521      0.7052      0.5354      0.3835      0.2317       0.000    
  31    10.00       9.907       9.817       9.724       9.628       9.510       9.340       9.082       8.749       8.382    
        8.002       7.674       7.422       7.182       6.973       6.757       6.553       6.402       6.176       5.942    
        5.742       5.567       5.402       5.230       5.088       4.928       4.769       4.621       4.468       4.314    
        4.132       3.950       3.784       3.583       3.298       2.947       2.582       2.257       2.045       1.853    
        1.605       1.377       1.200       1.047      0.8978      0.7418      0.5711      0.4104      0.2260       0.000    
  32    10.00       9.921       9.854       9.773       9.679       9.574       9.406       9.116       8.806       8.472    
        8.071       7.730       7.480       7.255       7.045       6.864       6.682       6.492       6.309       6.086    
        5.875       5.685       5.524       5.365       5.234       5.121       4.945       4.773       4.575       4.364    
        4.164       3.975       3.786       3.587       3.314       2.994       2.685       2.396       2.170       1.953    
        1.723       1.484       1.294       1.114      0.9424      0.8005      0.6254      0.4122      0.2049       0.000    
  33    10.00       9.933       9.877       9.812       9.722       9.603       9.392       9.113       8.854       8.547    
        8.159       7.822       7.563       7.320       7.126       6.970       6.809       6.620       6.416       6.213    
        5.992       5.788       5.601       5.445       5.338       5.225       5.059       4.850       4.645       4.441    
        4.239       4.057       3.860       3.602       3.342       3.048       2.782       2.550       2.313       2.077    
        1.862       1.634       1.424       1.235       1.043      0.8733      0.6760      0.4237      0.1996       0.000    
  34    10.00       9.940       9.903       9.847       9.737       9.575       9.373       9.167       8.902       8.570    
        8.231       7.904       7.630       7.389       7.213       7.088       6.917       6.728       6.507       6.315    
        6.116       5.877       5.688       5.543       5.435       5.306       5.116       4.928       4.714       4.491    
        4.321       4.151       3.974       3.717       3.442       3.169       2.923       2.714       2.469       2.229    
        2.021       1.811       1.588       1.393       1.188      0.9883      0.7354      0.4729      0.2493       0.000    
  35    10.00       9.950       9.908       9.838       9.704       9.534       9.387       9.213       8.972       8.617    
        8.258       7.959       7.685       7.475       7.322       7.181       7.007       6.799       6.587       6.375    
        6.194       5.983       5.792       5.655       5.538       5.410       5.204       4.975       4.749       4.538    
        4.407       4.249       4.057       3.860       3.620       3.326       3.074       2.901       2.650       2.376    
        2.178       1.966       1.754       1.562       1.331       1.108      0.8517      0.5687      0.2842       0.000    
  36    10.00       9.948       9.889       9.811       9.678       9.518       9.386       9.227       8.986       8.659    
        8.288       7.966       7.759       7.588       7.444       7.273       7.065       6.865       6.644       6.389    
        6.198       6.032       5.866       5.747       5.632       5.479       5.265       5.026       4.796       4.595    
        4.461       4.328       4.145       3.956       3.748       3.480       3.221       3.028       2.805       2.507    
        2.284       2.071       1.853       1.694       1.471       1.222      0.9654      0.6690      0.3403       0.000    
  37    10.00       9.933       9.868       9.784       9.651       9.505       9.359       9.205       8.987       8.637    
        8.265       7.998       7.867       7.705       7.518       7.350       7.118       6.878       6.616       6.366    
        6.210       6.078       5.923       5.802       5.669       5.493       5.294       5.051       4.842       4.681    
        4.534       4.385       4.195       4.026       3.809       3.552       3.345       3.155       2.906       2.611    
        2.342       2.133       1.958       1.779       1.568       1.335       1.089      0.7562      0.4098       0.000    
  38    10.00       9.926       9.843       9.754       9.632       9.490       9.330       9.171       8.941       8.619    
        8.334       8.117       7.950       7.805       7.599       7.348       7.090       6.813       6.535       6.368    
        6.245       6.089       5.947       5.840       5.702       5.503       5.265       5.045       4.913       4.778    
        4.615       4.444       4.258       4.084       3.871       3.630       3.442       3.249       2.953       2.642    
        2.408       2.213       2.035       1.855       1.666       1.442       1.186      0.8660      0.4494       0.000    
  39    10.00       9.907       9.824       9.736       9.617       9.460       9.288       9.122       8.914       8.654    
        8.431       8.269       8.083       7.881       7.594       7.275       6.964       6.671       6.499       6.385    
        6.228       6.065       5.961       5.862       5.735       5.509       5.264       5.105       4.984       4.845    
        4.673       4.506       4.316       4.128       3.944       3.742       3.525       3.299       2.993       2.685    
        2.439       2.243       2.103       1.960       1.754       1.524       1.267      0.9183      0.4498       0.000    
  40    10.00       9.892       9.812       9.724       9.604       9.442       9.266       9.098       8.921       8.706    
        8.522       8.384       8.161       7.849       7.491       7.139       6.823       6.618       6.499       6.371    
        6.201       6.058       5.962       5.851       5.704       5.523       5.350       5.185       5.040       4.911    
        4.752       4.563       4.368       4.188       4.016       3.811       3.576       3.348       3.015       2.678    
        2.454       2.290       2.145       2.021       1.813       1.557       1.320      0.9545      0.4714       0.000    
  41    10.00       9.900       9.807       9.710       9.579       9.432       9.278       9.128       8.959       8.767    
        8.593       8.430       8.140       7.749       7.356       7.036       6.784       6.607       6.486       6.343    
        6.172       6.049       5.947       5.829       5.696       5.561       5.430       5.272       5.100       4.950    
        4.806       4.624       4.425       4.260       4.079       3.877       3.637       3.318       2.949       2.689    
        2.506       2.335       2.200       2.044       1.824       1.571       1.361       1.013      0.5190       0.000    
  42    10.00       9.904       9.801       9.712       9.597       9.460       9.308       9.141       8.991       8.844    
        8.641       8.356       7.995       7.594       7.241       6.992       6.773       6.605       6.467       6.297    
        6.140       6.026       5.924       5.837       5.721       5.618       5.496       5.317       5.134       4.998    
        4.868       4.672       4.457       4.302       4.146       3.920       3.612       3.231       2.901       2.701    
        2.556       2.409       2.243       2.040       1.812       1.607       1.396       1.055      0.5431       0.000    
  43    10.00       9.906       9.811       9.720       9.630       9.509       9.357       9.193       9.031       8.826    
        8.542       8.216       7.847       7.461       7.185       6.976       6.770       6.596       6.431       6.263    
        6.114       6.008       5.930       5.861       5.758       5.646       5.528       5.354       5.189       5.076    
        4.911       4.695       4.492       4.338       4.160       3.884       3.522       3.153       2.923       2.765    
        2.610       2.452       2.249       2.030       1.822       1.624       1.434       1.052      0.4741       0.000    
  44    10.00       9.900       9.814       9.735       9.636       9.544       9.416       9.219       9.003       8.724    
        8.438       8.095       7.692       7.410       7.195       6.965       6.741       6.546       6.367       6.217    
        6.110       6.023       5.948       5.877       5.788       5.674       5.536       5.397       5.268       5.126    
        4.968       4.772       4.543       4.326       4.117       3.834       3.456       3.137       2.952       2.799    
        2.651       2.476       2.273       2.077       1.859       1.639       1.391      0.9012      0.3983       0.000    
  45    10.00       9.900       9.829       9.739       9.646       9.564       9.380       9.158       8.906       8.631    
        8.390       7.981       7.605       7.394       7.177       6.927       6.675       6.476       6.318       6.208    
        6.130       6.053       5.974       5.888       5.793       5.689       5.573       5.455       5.349       5.203    
        5.014       4.804       4.572       4.310       4.072       3.765       3.409       3.157       3.005       2.852    
        2.659       2.457       2.279       2.102       1.911       1.675       1.255      0.7557      0.3828       0.000    
  46    10.00       9.917       9.842       9.747       9.645       9.491       9.298       9.115       8.885       8.616    
        8.269       7.893       7.591       7.328       7.106       6.860       6.609       6.454       6.334       6.232    
        6.160       6.089       5.996       5.893       5.799       5.706       5.611       5.506       5.400       5.267    
        5.090       4.872       4.614       4.318       3.986       3.656       3.396       3.223       3.053       2.877    
        2.655       2.445       2.267       2.125       1.920       1.590       1.125      0.7122      0.3619       0.000    
  47    10.00       9.936       9.866       9.767       9.591       9.406       9.241       9.084       8.879       8.544    
        8.171       7.821       7.530       7.309       7.071       6.799       6.583       6.444       6.349       6.265    
        6.188       6.106       6.014       5.913       5.819       5.738       5.654       5.549       5.428       5.296    
        5.140       4.946       4.615       4.222       3.910       3.666       3.439       3.291       3.135       2.890    
        2.625       2.404       2.238       2.122       1.865       1.471       1.045      0.6856      0.3519       0.000    
  48    10.00       9.944       9.870       9.722       9.545       9.391       9.215       9.057       8.838       8.486    
        8.079       7.762       7.527       7.263       6.987       6.742       6.579       6.444       6.353       6.291    
        6.214       6.115       6.014       5.925       5.850       5.782       5.701       5.586       5.442       5.289    
        5.128       4.906       4.564       4.241       3.967       3.724       3.512       3.344       3.143       2.850    
        2.570       2.392       2.253       2.036       1.692       1.340      0.9985      0.6908      0.3716       0.000    
  49    10.00       9.941       9.836       9.704       9.559       9.380       9.203       9.025       8.755       8.382    
        8.031       7.735       7.451       7.201       6.988       6.758       6.548       6.425       6.365       6.305    
        6.233       6.121       6.009       5.935       5.873       5.820       5.729       5.590       5.428       5.281    
        5.113       4.842       4.552       4.335       4.084       3.800       3.543       3.340       3.108       2.795    
        2.569       2.413       2.206       1.878       1.573       1.284      0.9874      0.6908      0.3705       0.000    
  50    10.00       9.933       9.824       9.689       9.558       9.391       9.193       8.972       8.686       8.391    
        8.025       7.654       7.391       7.192       7.012       6.752       6.519       6.427       6.373       6.313    
        6.241       6.126       6.011       5.940       5.888       5.838       5.735       5.576       5.412       5.272    
        5.100       4.821       4.596       4.402       4.140       3.857       3.589       3.311       2.994       2.731    
        2.614       2.437       2.118       1.789       1.561       1.282       1.001      0.6768      0.3017       0.000    

 HEAD WILL BE SAVED ON UNIT   51 AT END OF TIME STEP  81, STRESS PERIOD    2

 DRAWDOWN WILL BE SAVED ON UNIT   52 AT END OF TIME STEP  81, STRESS PERIOD    2
1
  VOLUMETRIC BUDGET FOR ENTIRE MODEL AT END OF TIME STEP 81 IN STRESS PERIOD   2
  ------------------------------------------------------------------------------

     CUMULATIVE VOLUMES      L**3       RATES FOR THIS TIME STEP      L**3/T
     ------------------                 ------------------------

           IN:                                      IN:
           ---                                      ---
             STORAGE =       37901.2227               STORAGE =         400.1245
       CONSTANT HEAD =       51137.4922         CONSTANT HEAD =         676.9269
               WELLS =           0.0000                 WELLS =           0.0000

            TOTAL IN =       89038.7188              TOTAL IN =        1077.0514

          OUT:                                     OUT:
          ----                                     ----
             STORAGE =       9.4320E-03               STORAGE =           0.0000
       CONSTANT HEAD =       48538.7031         CONSTANT HEAD =         577.0515
               WELLS =       40500.0000                 WELLS =         500.0000

           TOTAL OUT =       89038.7109             TOTAL OUT =        1077.0515

            IN - OUT =       7.8125E-03              IN - OUT =      -1.2207E-04

 PERCENT DISCREPANCY =           0.00     PERCENT DISCREPANCY =           0.00






          TIME SUMMARY AT END OF TIME STEP  81 IN STRESS PERIOD    2
                    SECONDS     MINUTES      HOURS       DAYS        YEARS
                    -----------------------------------------------------------
   TIME STEP LENGTH  86400.      1440.0      24.000      1.0000     2.73785E-03
 STRESS PERIOD TIME 6.99840E+06 1.16640E+05  1944.0      81.000     0.22177    
         TOTAL TIME 7.08480E+06 1.18080E+05  1968.0      82.000     0.22450    
1
 
 SOLVING FOR HEAD 

 OUTPUT CONTROL FOR STRESS PERIOD    2   TIME STEP  82
    SAVE HEAD FOR ALL LAYERS
    SAVE DRAWDOWN FOR ALL LAYERS
    SAVE BUDGET
    PRINT HEAD FOR ALL LAYERS
    PRINT BUDGET
 UBDSV1 SAVING "         STORAGE" ON UNIT  53 AT TIME STEP 82, STRESS PERIOD   2
 UBDSV2 SAVING "   CONSTANT HEAD" ON UNIT  53 AT TIME STEP 82, STRESS PERIOD   2
 UBDSV1 SAVING "FLOW RIGHT FACE " ON UNIT  53 AT TIME STEP 82, STRESS PERIOD   2
 UBDSV1 SAVING "FLOW FRONT FACE " ON UNIT  53 AT TIME STEP 82, STRESS PERIOD   2
1
              HEAD IN LAYER   1 AT END OF TIME STEP  82 IN STRESS PERIOD    2
  ---------------------------------------------------------------------------

            1           2           3           4           5           6           7           8           9          10
           11          12          13          14          15          16          17          18          19          20
           21          22          23          24          25          26          27          28          29          30
           31          32          33          34          35          36          37          38          39          40
           41          42          43          44          45          46          47          48          49          50
 ........................................................................................................................
   1    10.00       9.954       9.888       9.813       9.741       9.658       9.580       9.503       9.405       9.310    
        9.237       9.165       9.091       9.020       8.904       8.765       8.610       8.488       8.426       8.353    
        8.267       8.199       8.132       8.056       7.955       7.757       7.533       7.378       7.227       7.086    
        6.902       6.608       6.233       5.817       5.385       4.927       4.474       4.097       3.605       3.070    
        2.632       2.214       1.749       1.361       1.122      0.9203      0.7604      0.6446      0.4327       0.000    
   2    10.00       9.953       9.893       9.818       9.744       9.671       9.593       9.492       9.385       9.307    
        9.244       9.182       9.120       9.032       8.899       8.754       8.608       8.488       8.423       8.342    
        8.256       8.204       8.150       8.071       7.942       7.748       7.545       7.385       7.233       7.095    
        6.890       6.582       6.188       5.713       5.253       4.810       4.417       4.053       3.552       3.035    
        2.596       2.126       1.703       1.399       1.175       1.002      0.8036      0.6274      0.3501       0.000    
   3    10.00       9.946       9.887       9.820       9.755       9.681       9.581       9.474       9.399       9.328    
        9.257       9.201       9.147       9.061       8.926       8.746       8.587       8.490       8.414       8.331    
        8.261       8.207       8.151       8.044       7.904       7.730       7.554       7.428       7.250       7.070    
        6.812       6.446       5.993       5.532       5.126       4.715       4.331       3.939       3.419       2.941    
        2.565       2.134       1.749       1.471       1.249       1.070      0.8358      0.5606      0.2542       0.000    
   4    10.00       9.946       9.888       9.823       9.749       9.663       9.560       9.478       9.413       9.341    
        9.279       9.232       9.171       9.074       8.942       8.750       8.585       8.493       8.409       8.335    
        8.259       8.192       8.120       8.007       7.868       7.712       7.552       7.396       7.237       7.033    
        6.706       6.219       5.737       5.387       5.053       4.630       4.169       3.710       3.294       2.936    
        2.586       2.188       1.827       1.578       1.329       1.101      0.8117      0.5040      0.2415       0.000    
   5    10.00       9.943       9.884       9.810       9.736       9.656       9.563       9.492       9.425       9.358    
        9.303       9.257       9.177       9.063       8.917       8.743       8.602       8.502       8.418       8.318    
        8.226       8.153       8.066       7.956       7.831       7.670       7.510       7.366       7.208       6.955    
        6.483       5.934       5.548       5.276       4.945       4.489       4.015       3.600       3.292       2.970    
        2.629       2.265       1.909       1.678       1.412       1.084      0.7385      0.4492      0.2259       0.000    
   6    10.00       9.934       9.865       9.803       9.735       9.648       9.570       9.509       9.439       9.375    
        9.323       9.267       9.166       9.038       8.910       8.763       8.621       8.505       8.394       8.277    
        8.185       8.098       8.022       7.923       7.763       7.604       7.476       7.329       7.106       6.721    
        6.197       5.698       5.377       5.144       4.844       4.394       3.925       3.581       3.322       3.032    
        2.724       2.406       2.044       1.735       1.383       1.022      0.6517      0.3873      0.2132       0.000    
   7    10.00       9.922       9.854       9.797       9.726       9.654       9.584       9.526       9.461       9.398    
        9.335       9.250       9.139       9.018       8.896       8.781       8.632       8.472       8.343       8.229    
        8.132       8.048       7.983       7.857       7.693       7.559       7.428       7.228       6.863       6.367    
        5.869       5.468       5.254       5.047       4.699       4.276       3.964       3.633       3.355       3.169    
        2.879       2.540       2.115       1.675       1.281      0.8861      0.5608      0.3897      0.2007       0.000    
   8    10.00       9.921       9.860       9.795       9.724       9.660       9.599       9.540       9.480       9.420    
        9.336       9.227       9.117       9.002       8.889       8.759       8.571       8.403       8.298       8.188    
        8.079       8.008       7.909       7.772       7.628       7.489       7.265       6.952       6.488       6.054    
        5.685       5.380       5.187       4.951       4.578       4.231       3.950       3.708       3.496       3.284    
        3.003       2.577       2.057       1.587       1.177      0.8285      0.5930      0.3814      0.1829       0.000    
   9    10.00       9.933       9.859       9.788       9.735       9.681       9.620       9.558       9.491       9.426    
        9.329       9.204       9.084       8.969       8.848       8.694       8.511       8.357       8.243       8.130    
        8.034       7.942       7.807       7.676       7.541       7.366       7.041       6.619       6.185       5.869    
        5.567       5.321       5.109       4.815       4.472       4.184       3.972       3.797       3.609       3.377    
        3.040       2.576       2.046       1.582       1.184      0.8458      0.5978      0.3844      0.1966       0.000    
  10    10.00       9.931       9.852       9.794       9.745       9.693       9.637       9.584       9.506       9.409    
        9.290       9.160       9.045       8.937       8.812       8.621       8.429       8.294       8.190       8.084    
        7.994       7.865       7.716       7.567       7.409       7.152       6.731       6.295       5.929       5.677    
        5.485       5.279       5.020       4.724       4.409       4.171       4.014       3.863       3.660       3.393    
        3.007       2.527       2.045       1.650       1.279      0.9295      0.6160      0.4080      0.2194       0.000    
  11    10.00       9.916       9.852       9.804       9.755       9.711       9.660       9.585       9.478       9.369    
        9.249       9.121       9.014       8.883       8.712       8.530       8.372       8.253       8.158       8.051    
        7.914       7.749       7.545       7.375       7.107       6.746       6.389       6.071       5.768       5.584    
        5.437       5.171       4.891       4.647       4.409       4.231       4.069       3.876       3.626       3.303    
        2.940       2.572       2.112       1.724       1.372       1.027      0.6913      0.4005      0.1680       0.000    
  12    10.00       9.918       9.859       9.808       9.767       9.721       9.662       9.556       9.431       9.326    
        9.215       9.081       8.950       8.794       8.643       8.475       8.323       8.221       8.113       7.965    
        7.735       7.487       7.246       7.006       6.648       6.377       6.178       5.867       5.620       5.486    
        5.319       5.070       4.843       4.619       4.452       4.283       4.081       3.845       3.541       3.220    
        2.915       2.584       2.141       1.761       1.432       1.071      0.7261      0.3771      0.1252       0.000    
  13    10.00       9.934       9.878       9.824       9.775       9.719       9.624       9.502       9.384       9.277    
        9.152       9.020       8.884       8.720       8.555       8.397       8.286       8.158       8.015       7.717    
        7.369       7.106       6.841       6.521       6.248       6.121       5.897       5.624       5.493       5.370    
        5.175       4.964       4.786       4.625       4.483       4.325       4.085       3.770       3.481       3.180    
        2.892       2.550       2.076       1.725       1.442       1.059      0.6658      0.3247      9.9400E-02   0.000    
  14    10.00       9.949       9.900       9.843       9.775       9.682       9.559       9.436       9.329       9.211    
        9.082       8.959       8.804       8.632       8.485       8.348       8.178       8.009       7.724       7.279    
        6.946       6.693       6.340       6.092       5.968       5.854       5.633       5.467       5.338       5.211    
        5.043       4.896       4.773       4.637       4.485       4.332       4.061       3.720       3.424       3.115    
        2.823       2.400       1.951       1.676       1.355       1.011      0.6646      0.2997      8.5371E-02   0.000    
  15    10.00       9.959       9.908       9.844       9.762       9.627       9.476       9.368       9.268       9.151    
        9.050       8.923       8.723       8.527       8.390       8.175       7.958       7.782       7.344       6.860    
        6.561       6.223       5.928       5.838       5.775       5.630       5.444       5.289       5.191       5.094    
        4.970       4.865       4.766       4.647       4.499       4.314       3.997       3.621       3.312       3.034    
        2.722       2.298       1.948       1.605       1.225      0.9234      0.5924      0.2741      9.2719E-02   0.000    
  16    10.00       9.966       9.911       9.831       9.710       9.549       9.415       9.328       9.240       9.122    
        9.000       8.811       8.560       8.371       8.174       7.925       7.781       7.421       6.807       6.387    
        6.127       5.841       5.739       5.689       5.569       5.382       5.237       5.163       5.120       5.038    
        4.935       4.840       4.756       4.636       4.458       4.205       3.845       3.525       3.285       2.997    
        2.637       2.222       1.847       1.475       1.149      0.8160      0.5302      0.2761      9.8584E-02   0.000    
  17    10.00       9.961       9.894       9.787       9.649       9.482       9.363       9.288       9.182       9.056    
        8.835       8.570       8.361       8.167       7.913       7.666       7.361       6.789       6.283       6.025    
        5.823       5.675       5.605       5.482       5.297       5.165       5.124       5.105       5.062       4.980    
        4.891       4.809       4.721       4.597       4.339       4.010       3.735       3.532       3.303       2.957    
        2.504       2.101       1.753       1.405       1.029      0.6794      0.4511      0.2502      0.1042       0.000    
  18    10.00       9.944       9.858       9.734       9.552       9.411       9.327       9.214       9.084       8.895    
        8.613       8.393       8.197       7.902       7.571       7.231       6.805       6.312       6.007       5.811    
        5.660       5.532       5.418       5.251       5.125       5.086       5.070       5.049       4.992       4.914    
        4.840       4.758       4.645       4.454       4.189       3.928       3.718       3.554       3.266       2.841    
        2.407       1.988       1.639       1.313      0.9527      0.6257      0.3808      0.2088      9.7504E-02   0.000    
  19    10.00       9.925       9.826       9.643       9.462       9.380       9.273       9.126       8.968       8.752    
        8.502       8.285       7.970       7.549       7.205       6.873       6.421       6.024       5.833       5.706    
        5.547       5.385       5.255       5.117       5.051       5.033       5.011       4.967       4.897       4.830    
        4.758       4.668       4.521       4.330       4.119       3.903       3.727       3.517       3.107       2.690    
        2.347       1.921       1.544       1.228      0.8740      0.5631      0.3424      0.1981      9.9183E-02   0.000    
  20    10.00       9.902       9.751       9.561       9.427       9.333       9.214       9.056       8.868       8.667    
        8.407       8.082       7.655       7.271       6.969       6.574       6.166       5.965       5.804       5.632    
        5.459       5.290       5.130       5.029       4.984       4.948       4.896       4.851       4.783       4.722    
        4.652       4.563       4.417       4.255       4.070       3.890       3.705       3.378       2.952       2.600    
        2.222       1.808       1.475       1.159      0.8302      0.5058      0.2973      0.1998      0.1009       0.000    
  21    10.00       9.845       9.689       9.533       9.394       9.287       9.156       8.954       8.763       8.568    
        8.229       7.821       7.423       7.108       6.785       6.408       6.119       5.944       5.759       5.571    
        5.361       5.168       5.028       4.925       4.848       4.779       4.737       4.696       4.625       4.579    
        4.532       4.439       4.319       4.182       4.022       3.852       3.591       3.263       2.898       2.482    
        2.103       1.716       1.428       1.139      0.7217      0.4274      0.3047      0.2224      0.1069       0.000    
  22    10.00       9.822       9.638       9.486       9.368       9.239       9.047       8.846       8.676       8.418    
        8.061       7.636       7.293       7.033       6.679       6.332       6.089       5.909       5.726       5.499    
        5.256       5.061       4.879       4.719       4.615       4.566       4.533       4.476       4.453       4.427    
        4.392       4.323       4.236       4.113       3.967       3.804       3.535       3.212       2.784       2.376    
        2.049       1.699       1.379      0.9504      0.5951      0.4287      0.3225      0.2146      8.5291E-02   0.000    
  23    10.00       9.782       9.602       9.476       9.346       9.155       8.938       8.781       8.566       8.298    
        7.936       7.558       7.294       6.964       6.584       6.282       6.077       5.911       5.705       5.432    
        5.174       4.944       4.703       4.416       4.163       4.112       4.185       4.220       4.269       4.286    
        4.273       4.230       4.157       4.059       3.922       3.753       3.504       3.104       2.656       2.321    
        2.009       1.610       1.151      0.7784      0.5812      0.4404      0.3224      0.2047      9.5359E-02   0.000    
  24    10.00       9.752       9.621       9.476       9.292       9.082       8.911       8.740       8.529       8.221    
        7.889       7.595       7.304       6.907       6.506       6.267       6.097       5.925       5.676       5.401    
        5.144       4.879       4.511       3.852       2.861       3.192       3.644       3.930       4.083       4.147    
        4.167       4.143       4.096       3.997       3.864       3.693       3.386       2.966       2.587       2.233    
        1.853       1.431       1.024      0.7443      0.5794      0.4385      0.3155      0.2391      0.1317       0.000    
  25    10.00       9.784       9.646       9.470       9.277       9.089       8.915       8.752       8.495       8.189    
        7.909       7.627       7.271       6.837       6.525       6.307       6.117       5.915       5.682       5.427    
        5.150       4.886       4.213       2.812     -0.3658       2.208       3.182       3.670       3.930       4.050    
        4.087       4.080       4.032       3.918       3.779       3.570       3.252       2.849       2.508       2.125    
        1.687       1.289      0.9564      0.7384      0.6038      0.4723      0.3452      0.2545      0.1661       0.000    
  26    10.00       9.815       9.685       9.497       9.298       9.133       8.952       8.747       8.484       8.246    
        8.005       7.629       7.181       6.812       6.585       6.388       6.162       5.899       5.653       5.434    
        5.220       4.929       4.307       3.289       2.219       2.739       3.302       3.658       3.878       4.007    
        4.042       4.033       3.968       3.858       3.723       3.498       3.083       2.711       2.421       1.953    
        1.476       1.146      0.9494      0.8022      0.6587      0.5126      0.3803      0.2786      0.1664       0.000    
  27    10.00       9.856       9.698       9.538       9.360       9.170       8.991       8.793       8.558       8.330    
        8.008       7.567       7.179       6.878       6.678       6.456       6.160       5.871       5.670       5.496    
        5.316       5.016       4.549       3.985       3.385       3.402       3.600       3.786       3.929       4.007    
        4.025       4.007       3.943       3.830       3.648       3.295       2.903       2.608       2.160       1.696    
        1.352       1.134      0.9904      0.8657      0.7334      0.5648      0.4069      0.3046      0.2047       0.000    
  28    10.00       9.869       9.736       9.583       9.423       9.243       9.058       8.859       8.638       8.375    
        7.983       7.583       7.246       6.957       6.748       6.526       6.272       5.987       5.719       5.546    
        5.385       5.169       4.857       4.433       4.052       3.881       3.891       3.977       4.014       4.041    
        4.033       4.000       3.923       3.760       3.490       3.119       2.780       2.374       1.929       1.617    
        1.363       1.182       1.039      0.9154      0.7793      0.6179      0.4615      0.3468      0.2115       0.000    
  29    10.00       9.875       9.749       9.635       9.481       9.317       9.140       8.940       8.707       8.357    
        7.972       7.623       7.304       7.064       6.825       6.584       6.352       6.124       5.863       5.637    
        5.463       5.281       5.065       4.804       4.457       4.271       4.200       4.169       4.152       4.113    
        4.062       3.988       3.887       3.666       3.336       2.994       2.634       2.220       1.876       1.646    
        1.438       1.238       1.081      0.9606      0.8279      0.6625      0.5010      0.3669      0.2139       0.000    
  30    10.00       9.887       9.783       9.683       9.549       9.399       9.241       9.020       8.730       8.375    
        7.978       7.625       7.358       7.123       6.888       6.653       6.459       6.262       6.027       5.784    
        5.576       5.407       5.220       5.031       4.809       4.607       4.525       4.395       4.320       4.214    
        4.094       3.967       3.813       3.576       3.295       2.964       2.587       2.200       1.944       1.730    
        1.493       1.296       1.145       1.000      0.8510      0.7042      0.5347      0.3830      0.2314       0.000    
  31    10.00       9.906       9.817       9.723       9.627       9.509       9.338       9.079       8.745       8.377    
        7.996       7.667       7.414       7.174       6.965       6.749       6.544       6.393       6.166       5.932    
        5.732       5.556       5.391       5.219       5.077       4.917       4.758       4.611       4.458       4.304    
        4.123       3.942       3.777       3.576       3.293       2.942       2.578       2.254       2.042       1.850    
        1.603       1.376       1.199       1.046      0.8966      0.7409      0.5704      0.4099      0.2257       0.000    
  32    10.00       9.921       9.853       9.772       9.678       9.573       9.404       9.114       8.802       8.467    
        8.065       7.724       7.473       7.247       7.037       6.856       6.673       6.483       6.299       6.076    
        5.865       5.675       5.514       5.355       5.224       5.111       4.935       4.763       4.565       4.356    
        4.157       3.968       3.779       3.581       3.309       2.989       2.681       2.393       2.167       1.950    
        1.721       1.482       1.293       1.113      0.9412      0.7996      0.6247      0.4118      0.2047       0.000    
  33    10.00       9.933       9.877       9.812       9.722       9.602       9.390       9.111       8.850       8.542    
        8.154       7.815       7.557       7.313       7.119       6.962       6.801       6.612       6.407       6.203    
        5.983       5.779       5.591       5.435       5.328       5.215       5.049       4.841       4.637       4.434    
        4.232       4.050       3.854       3.597       3.337       3.044       2.778       2.546       2.310       2.074    
        1.859       1.632       1.423       1.233       1.041      0.8724      0.6753      0.4232      0.1995       0.000    
  34    10.00       9.939       9.902       9.846       9.736       9.573       9.371       9.164       8.898       8.566    
        8.226       7.898       7.623       7.382       7.205       7.080       6.910       6.720       6.498       6.307    
        6.107       5.868       5.679       5.534       5.426       5.297       5.107       4.920       4.706       4.485    
        4.314       4.145       3.968       3.712       3.437       3.165       2.920       2.711       2.467       2.227    
        2.019       1.809       1.586       1.392       1.187      0.9874      0.7348      0.4725      0.2491       0.000    
  35    10.00       9.950       9.908       9.838       9.703       9.533       9.386       9.211       8.969       8.613    
        8.254       7.953       7.679       7.468       7.315       7.174       6.999       6.791       6.579       6.367    
        6.186       5.975       5.783       5.646       5.530       5.402       5.196       4.968       4.743       4.532    
        4.401       4.244       4.052       3.856       3.616       3.323       3.071       2.898       2.647       2.373    
        2.176       1.965       1.753       1.561       1.330       1.107      0.8511      0.5683      0.2840       0.000    
  36    10.00       9.948       9.889       9.810       9.678       9.517       9.385       9.225       8.984       8.655    
        8.283       7.961       7.754       7.582       7.438       7.267       7.058       6.858       6.636       6.382    
        6.190       6.025       5.859       5.740       5.624       5.472       5.258       5.020       4.790       4.590    
        4.456       4.324       4.141       3.952       3.745       3.477       3.219       3.025       2.803       2.505    
        2.282       2.069       1.852       1.692       1.470       1.221      0.9648      0.6686      0.3401       0.000    
  37    10.00       9.932       9.868       9.783       9.650       9.504       9.357       9.204       8.984       8.634    
        8.261       7.993       7.862       7.700       7.512       7.343       7.111       6.872       6.609       6.360    
        6.203       6.071       5.916       5.795       5.662       5.486       5.288       5.046       4.838       4.677    
        4.530       4.381       4.191       4.023       3.806       3.549       3.343       3.153       2.904       2.609    
        2.341       2.132       1.957       1.778       1.567       1.335       1.088      0.7558      0.4095       0.000    
  38    10.00       9.926       9.843       9.754       9.631       9.489       9.329       9.169       8.939       8.616    
        8.330       8.113       7.945       7.800       7.593       7.342       7.085       6.807       6.530       6.362    
        6.239       6.083       5.942       5.834       5.696       5.498       5.261       5.041       4.909       4.774    
        4.612       4.441       4.254       4.081       3.868       3.627       3.440       3.246       2.951       2.641    
        2.407       2.212       2.034       1.854       1.665       1.441       1.186      0.8655      0.4492       0.000    
  39    10.00       9.906       9.824       9.735       9.616       9.459       9.287       9.120       8.911       8.651    
        8.427       8.265       8.078       7.876       7.589       7.270       6.958       6.666       6.494       6.380    
        6.223       6.060       5.956       5.857       5.731       5.504       5.261       5.101       4.981       4.842    
        4.669       4.503       4.313       4.125       3.942       3.739       3.523       3.297       2.991       2.684    
        2.438       2.241       2.102       1.959       1.753       1.523       1.266      0.9179      0.4496       0.000    
  40    10.00       9.892       9.811       9.723       9.604       9.441       9.264       9.096       8.919       8.703    
        8.519       8.381       8.158       7.845       7.487       7.135       6.819       6.614       6.495       6.367    
        6.197       6.054       5.958       5.847       5.700       5.519       5.346       5.181       5.037       4.908    
        4.749       4.560       4.365       4.186       4.014       3.808       3.574       3.346       3.013       2.676    
        2.453       2.289       2.144       2.020       1.812       1.556       1.320      0.9541      0.4712       0.000    
  41    10.00       9.900       9.807       9.710       9.578       9.431       9.277       9.126       8.957       8.765    
        8.591       8.427       8.136       7.746       7.352       7.032       6.780       6.603       6.482       6.339    
        6.168       6.045       5.944       5.825       5.693       5.557       5.427       5.269       5.097       4.947    
        4.803       4.621       4.422       4.257       4.076       3.875       3.635       3.317       2.947       2.687    
        2.505       2.333       2.199       2.043       1.823       1.570       1.361       1.013      0.5188       0.000    
  42    10.00       9.904       9.800       9.711       9.597       9.459       9.306       9.140       8.989       8.842    
        8.638       8.353       7.992       7.591       7.238       6.989       6.770       6.602       6.464       6.293    
        6.136       6.023       5.921       5.834       5.717       5.615       5.493       5.314       5.131       4.996    
        4.865       4.669       4.455       4.299       4.144       3.918       3.610       3.229       2.899       2.700    
        2.555       2.408       2.242       2.039       1.811       1.607       1.395       1.055      0.5428       0.000    
  43    10.00       9.905       9.811       9.720       9.629       9.508       9.356       9.192       9.029       8.824    
        8.540       8.214       7.845       7.458       7.182       6.973       6.766       6.593       6.428       6.259    
        6.111       6.005       5.927       5.858       5.755       5.643       5.525       5.351       5.186       5.073    
        4.909       4.692       4.490       4.336       4.158       3.882       3.520       3.152       2.922       2.764    
        2.609       2.451       2.248       2.029       1.821       1.623       1.433       1.052      0.4739       0.000    
  44    10.00       9.900       9.813       9.735       9.636       9.544       9.415       9.218       9.002       8.723    
        8.436       8.093       7.690       7.408       7.193       6.963       6.738       6.543       6.364       6.214    
        6.107       6.020       5.945       5.874       5.785       5.671       5.533       5.395       5.266       5.123    
        4.965       4.769       4.540       4.323       4.114       3.832       3.455       3.135       2.951       2.798    
        2.649       2.475       2.272       2.076       1.858       1.638       1.390      0.9008      0.3982       0.000    
  45    10.00       9.900       9.829       9.739       9.646       9.563       9.379       9.157       8.904       8.630    
        8.388       7.979       7.603       7.392       7.174       6.924       6.672       6.473       6.315       6.205    
        6.127       6.050       5.971       5.885       5.790       5.686       5.570       5.452       5.347       5.201    
        5.011       4.802       4.570       4.308       4.070       3.763       3.408       3.156       3.004       2.850    
        2.658       2.456       2.278       2.101       1.910       1.674       1.254      0.7554      0.3827       0.000    
  46    10.00       9.917       9.842       9.747       9.644       9.491       9.297       9.114       8.884       8.614    
        8.268       7.892       7.589       7.326       7.104       6.858       6.607       6.451       6.331       6.229    
        6.157       6.086       5.993       5.890       5.796       5.703       5.608       5.503       5.398       5.264    
        5.088       4.869       4.612       4.315       3.984       3.654       3.394       3.222       3.052       2.876    
        2.654       2.444       2.266       2.124       1.919       1.589       1.125      0.7119      0.3617       0.000    
  47    10.00       9.936       9.866       9.767       9.591       9.405       9.240       9.083       8.878       8.542    
        8.169       7.819       7.528       7.307       7.069       6.796       6.580       6.441       6.347       6.263    
        6.186       6.103       6.011       5.910       5.816       5.736       5.651       5.547       5.426       5.293    
        5.138       4.944       4.613       4.221       3.908       3.664       3.437       3.289       3.133       2.888    
        2.624       2.403       2.237       2.121       1.865       1.471       1.045      0.6854      0.3518       0.000    
  48    10.00       9.944       9.870       9.722       9.545       9.391       9.214       9.056       8.837       8.484    
        8.078       7.760       7.525       7.261       6.984       6.740       6.577       6.441       6.350       6.288    
        6.211       6.112       6.011       5.923       5.848       5.779       5.698       5.583       5.440       5.286    
        5.125       4.904       4.562       4.239       3.966       3.722       3.510       3.343       3.142       2.849    
        2.569       2.391       2.252       2.035       1.692       1.339      0.9982      0.6905      0.3715       0.000    
  49    10.00       9.941       9.835       9.703       9.558       9.380       9.202       9.025       8.753       8.380    
        8.030       7.733       7.449       7.199       6.986       6.755       6.545       6.422       6.362       6.302    
        6.230       6.118       6.006       5.933       5.871       5.817       5.726       5.587       5.426       5.279    
        5.110       4.840       4.550       4.334       4.083       3.798       3.541       3.339       3.107       2.794    
        2.568       2.412       2.205       1.877       1.572       1.284      0.9871      0.6906      0.3704       0.000    
  50    10.00       9.933       9.824       9.689       9.557       9.390       9.192       8.971       8.685       8.390    
        8.024       7.652       7.389       7.190       7.009       6.749       6.516       6.425       6.371       6.311    
        6.239       6.124       6.009       5.937       5.885       5.835       5.733       5.574       5.410       5.270    
        5.097       4.818       4.594       4.400       4.138       3.856       3.587       3.310       2.993       2.730    
        2.613       2.437       2.117       1.788       1.561       1.282       1.001      0.6765      0.3016       0.000    

 HEAD WILL BE SAVED ON UNIT   51 AT END OF TIME STEP  82, STRESS PERIOD    2

 DRAWDOWN WILL BE SAVED ON UNIT   52 AT END OF TIME STEP  82, STRESS PERIOD    2
1
  VOLUMETRIC BUDGET FOR ENTIRE MODEL AT END OF TIME STEP 82 IN STRESS PERIOD   2
  ------------------------------------------------------------------------------

     CUMULATIVE VOLUMES      L**3       RATES FOR THIS TIME STEP      L**3/T
     ------------------                 ------------------------

           IN:                                      IN:
           ---                                      ---
             STORAGE =       38299.2031               STORAGE =         397.9813
       CONSTANT HEAD =       51815.9609         CONSTANT HEAD =         678.4687
               WELLS =           0.0000                 WELLS =           0.0000

            TOTAL IN =       90115.1641              TOTAL IN =        1076.4500

          OUT:                                     OUT:
          ----                                     ----
             STORAGE =       9.4320E-03               STORAGE =           0.0000
       CONSTANT HEAD =       49115.1523         CONSTANT HEAD =         576.4502
               WELLS =       41000.0000                 WELLS =         500.0000

           TOTAL OUT =       90115.1641             TOTAL OUT =        1076.4502

            IN - OUT =           0.0000              IN - OUT =      -2.4414E-04

 PERCENT DISCREPANCY =           0.00     PERCENT DISCREPANCY =           0.00






          TIME SUMMARY AT END OF TIME STEP  82 IN STRESS PERIOD    2
                    SECONDS     MINUTES      HOURS       DAYS        YEARS
                    -----------------------------------------------------------
   TIME STEP LENGTH  86400.      1440.0      24.000      1.0000     2.73785E-03
 STRESS PERIOD TIME 7.08480E+06 1.18080E+05  1968.0      82.000     0.22450    
         TOTAL TIME 7.17120E+06 1.19520E+05  1992.0      83.000     0.22724    
1
 
 SOLVING FOR HEAD 

 OUTPUT CONTROL FOR STRESS PERIOD    2   TIME STEP  83
    SAVE HEAD FOR ALL LAYERS
    SAVE DRAWDOWN FOR ALL LAYERS
    SAVE BUDGET
    PRINT HEAD FOR ALL LAYERS
    PRINT BUDGET
 UBDSV1 SAVING "         STORAGE" ON UNIT  53 AT TIME STEP 83, STRESS PERIOD   2
 UBDSV2 SAVING "   CONSTANT HEAD" ON UNIT  53 AT TIME STEP 83, STRESS PERIOD   2
 UBDSV1 SAVING "FLOW RIGHT FACE " ON UNIT  53 AT TIME STEP 83, STRESS PERIOD   2
 UBDSV1 SAVING "FLOW FRONT FACE " ON UNIT  53 AT TIME STEP 83, STRESS PERIOD   2
1
              HEAD IN LAYER   1 AT END OF TIME STEP  83 IN STRESS PERIOD    2
  ---------------------------------------------------------------------------

            1           2           3           4           5           6           7           8           9          10
           11          12          13          14          15          16          17          18          19          20
           21          22          23          24          25          26          27          28          29          30
           31          32          33          34          35          36          37          38          39          40
           41          42          43          44          45          46          47          48          49          50
 ........................................................................................................................
   1    10.00       9.954       9.888       9.813       9.740       9.657       9.579       9.502       9.404       9.309    
        9.235       9.163       9.089       9.018       8.902       8.763       8.607       8.485       8.422       8.350    
        8.263       8.195       8.129       8.052       7.951       7.753       7.529       7.374       7.223       7.082    
        6.898       6.604       6.229       5.813       5.381       4.923       4.470       4.093       3.602       3.068    
        2.630       2.211       1.748       1.360       1.121      0.9193      0.7596      0.6440      0.4323       0.000    
   2    10.00       9.953       9.893       9.817       9.743       9.670       9.592       9.491       9.384       9.306    
        9.242       9.180       9.118       9.030       8.897       8.751       8.605       8.485       8.420       8.339    
        8.252       8.201       8.147       8.067       7.938       7.744       7.541       7.381       7.229       7.091    
        6.886       6.578       6.184       5.709       5.249       4.806       4.413       4.049       3.549       3.032    
        2.593       2.124       1.701       1.398       1.174       1.001      0.8028      0.6268      0.3497       0.000    
   3    10.00       9.946       9.887       9.820       9.755       9.680       9.580       9.473       9.397       9.327    
        9.256       9.199       9.145       9.059       8.923       8.743       8.584       8.487       8.411       8.328    
        8.257       8.204       8.148       8.040       7.900       7.726       7.550       7.424       7.246       7.066    
        6.808       6.441       5.989       5.528       5.122       4.711       4.328       3.936       3.416       2.938    
        2.562       2.132       1.747       1.470       1.248       1.069      0.8349      0.5600      0.2539       0.000    
   4    10.00       9.946       9.888       9.822       9.749       9.662       9.559       9.477       9.412       9.340    
        9.277       9.230       9.169       9.072       8.940       8.748       8.582       8.490       8.406       8.332    
        8.255       8.188       8.116       8.003       7.864       7.708       7.547       7.391       7.232       7.028    
        6.702       6.214       5.732       5.383       5.048       4.625       4.165       3.706       3.291       2.933    
        2.583       2.186       1.825       1.576       1.328       1.100      0.8108      0.5035      0.2412       0.000    
   5    10.00       9.942       9.883       9.810       9.735       9.655       9.562       9.491       9.424       9.356    
        9.302       9.255       9.175       9.061       8.915       8.740       8.599       8.499       8.415       8.315    
        8.223       8.150       8.062       7.952       7.827       7.666       7.506       7.362       7.203       6.951    
        6.478       5.929       5.543       5.271       4.940       4.485       4.011       3.596       3.289       2.967    
        2.626       2.262       1.907       1.676       1.410       1.082      0.7377      0.4487      0.2257       0.000    
   6    10.00       9.934       9.864       9.803       9.735       9.647       9.569       9.508       9.437       9.373    
        9.322       9.266       9.164       9.035       8.907       8.760       8.618       8.502       8.390       8.273    
        8.181       8.094       8.018       7.919       7.759       7.600       7.471       7.324       7.102       6.716    
        6.192       5.692       5.372       5.139       4.839       4.389       3.921       3.577       3.318       3.029    
        2.721       2.403       2.042       1.733       1.381       1.020      0.6510      0.3868      0.2130       0.000    
   7    10.00       9.922       9.853       9.796       9.726       9.653       9.583       9.525       9.460       9.397    
        9.333       9.248       9.137       9.015       8.893       8.778       8.629       8.469       8.339       8.225    
        8.128       8.044       7.979       7.852       7.688       7.555       7.423       7.223       6.858       6.362    
        5.864       5.462       5.248       5.042       4.694       4.271       3.959       3.629       3.351       3.165    
        2.875       2.537       2.113       1.673       1.279      0.8851      0.5601      0.3893      0.2004       0.000    
   8    10.00       9.921       9.859       9.794       9.723       9.659       9.598       9.539       9.479       9.418    
        9.334       9.225       9.115       8.999       8.887       8.756       8.568       8.400       8.294       8.184    
        8.075       8.004       7.905       7.768       7.624       7.484       7.260       6.946       6.482       6.048    
        5.678       5.374       5.181       4.945       4.573       4.226       3.945       3.703       3.492       3.280    
        2.999       2.574       2.054       1.585       1.176      0.8275      0.5923      0.3810      0.1827       0.000    
   9    10.00       9.933       9.858       9.787       9.734       9.680       9.619       9.557       9.490       9.425    
        9.327       9.202       9.082       8.966       8.846       8.691       8.508       8.353       8.239       8.126    
        8.029       7.937       7.802       7.671       7.536       7.361       7.035       6.613       6.178       5.862    
        5.561       5.314       5.102       4.809       4.466       4.178       3.967       3.792       3.604       3.373    
        3.036       2.573       2.044       1.580       1.182      0.8448      0.5971      0.3840      0.1964       0.000    
  10    10.00       9.930       9.851       9.793       9.744       9.692       9.636       9.583       9.505       9.408    
        9.289       9.158       9.042       8.934       8.809       8.618       8.425       8.291       8.186       8.080    
        7.990       7.861       7.711       7.562       7.404       7.147       6.725       6.288       5.922       5.670    
        5.478       5.272       5.014       4.718       4.403       4.165       4.009       3.858       3.655       3.388    
        3.003       2.524       2.043       1.648       1.277      0.9283      0.6152      0.4075      0.2191       0.000    
  11    10.00       9.916       9.851       9.803       9.755       9.710       9.659       9.584       9.476       9.367    
        9.247       9.119       9.012       8.880       8.709       8.526       8.368       8.249       8.153       8.046    
        7.910       7.744       7.540       7.369       7.101       6.739       6.382       6.063       5.761       5.576    
        5.429       5.164       4.884       4.641       4.402       4.225       4.063       3.871       3.621       3.298    
        2.936       2.568       2.109       1.722       1.370       1.025      0.6904      0.3999      0.1678       0.000    
  12    10.00       9.918       9.859       9.808       9.767       9.720       9.661       9.554       9.429       9.325    
        9.213       9.079       8.948       8.791       8.640       8.471       8.319       8.216       8.109       7.960    
        7.730       7.481       7.240       7.000       6.641       6.369       6.171       5.859       5.612       5.478    
        5.312       5.063       4.836       4.612       4.446       4.276       4.075       3.840       3.536       3.215    
        2.911       2.580       2.138       1.759       1.430       1.069      0.7251      0.3766      0.1250       0.000    
  13    10.00       9.934       9.877       9.823       9.774       9.718       9.623       9.501       9.383       9.276    
        9.149       9.017       8.881       8.717       8.551       8.393       8.281       8.153       8.011       7.711    
        7.363       7.100       6.834       6.514       6.240       6.113       5.889       5.616       5.484       5.362    
        5.167       4.956       4.779       4.617       4.476       4.318       4.079       3.764       3.475       3.175    
        2.887       2.546       2.073       1.722       1.440       1.058      0.6649      0.3242      9.9258E-02   0.000    
  14    10.00       9.949       9.900       9.842       9.774       9.682       9.558       9.434       9.327       9.209    
        9.079       8.956       8.801       8.628       8.480       8.344       8.173       8.004       7.718       7.273    
        6.939       6.685       6.332       6.084       5.959       5.845       5.624       5.458       5.330       5.202    
        5.035       4.888       4.765       4.629       4.478       4.325       4.054       3.714       3.418       3.110    
        2.818       2.396       1.947       1.673       1.353       1.010      0.6636      0.2993      8.5241E-02   0.000    
  15    10.00       9.959       9.908       9.844       9.761       9.626       9.475       9.366       9.266       9.149    
        9.047       8.920       8.719       8.523       8.386       8.170       7.953       7.776       7.337       6.852    
        6.553       6.215       5.919       5.829       5.766       5.621       5.434       5.280       5.182       5.085    
        4.961       4.856       4.757       4.638       4.492       4.306       3.990       3.615       3.306       3.029    
        2.718       2.294       1.944       1.603       1.223      0.9220      0.5915      0.2736      9.2572E-02   0.000    
  16    10.00       9.966       9.911       9.831       9.709       9.548       9.413       9.326       9.238       9.119    
        8.997       8.807       8.556       8.366       8.169       7.919       7.775       7.414       6.799       6.378    
        6.118       5.832       5.730       5.679       5.560       5.372       5.228       5.153       5.110       5.028    
        4.925       4.831       4.748       4.627       4.450       4.197       3.837       3.519       3.279       2.992    
        2.633       2.219       1.844       1.472       1.148      0.8146      0.5293      0.2757      9.8422E-02   0.000    
  17    10.00       9.960       9.894       9.786       9.648       9.481       9.361       9.286       9.179       9.053    
        8.831       8.566       8.356       8.162       7.907       7.659       7.354       6.780       6.274       6.015    
        5.813       5.665       5.595       5.472       5.287       5.155       5.114       5.095       5.052       4.970    
        4.881       4.800       4.712       4.589       4.330       4.002       3.727       3.525       3.297       2.951    
        2.500       2.097       1.750       1.403       1.027      0.6783      0.4503      0.2498      0.1041       0.000    
  18    10.00       9.944       9.858       9.733       9.550       9.409       9.325       9.211       9.081       8.891    
        8.609       8.388       8.192       7.895       7.564       7.223       6.797       6.303       5.997       5.801    
        5.650       5.522       5.407       5.241       5.115       5.076       5.060       5.039       4.982       4.904    
        4.830       4.748       4.636       4.445       4.180       3.920       3.711       3.547       3.260       2.836    
        2.403       1.984       1.636       1.311      0.9510      0.6246      0.3802      0.2085      9.7335E-02   0.000    
  19    10.00       9.924       9.825       9.642       9.461       9.378       9.270       9.123       8.965       8.747    
        8.497       8.279       7.963       7.541       7.197       6.865       6.412       6.014       5.822       5.696    
        5.537       5.375       5.245       5.107       5.040       5.023       5.001       4.957       4.887       4.820    
        4.748       4.658       4.511       4.320       4.110       3.895       3.719       3.509       3.101       2.684    
        2.343       1.917       1.541       1.225      0.8724      0.5621      0.3418      0.1977      9.9010E-02   0.000    
  20    10.00       9.902       9.750       9.559       9.425       9.330       9.211       9.052       8.864       8.662    
        8.401       8.076       7.648       7.263       6.960       6.565       6.156       5.955       5.794       5.621    
        5.449       5.279       5.120       5.019       4.974       4.937       4.886       4.840       4.772       4.712    
        4.642       4.552       4.407       4.246       4.061       3.882       3.697       3.370       2.946       2.595    
        2.217       1.805       1.472       1.157      0.8287      0.5049      0.2968      0.1994      0.1008       0.000    
  21    10.00       9.845       9.688       9.532       9.392       9.284       9.153       8.951       8.759       8.563    
        8.224       7.814       7.415       7.100       6.776       6.399       6.109       5.934       5.749       5.561    
        5.350       5.157       5.017       4.914       4.837       4.769       4.727       4.685       4.614       4.568    
        4.521       4.428       4.308       4.173       4.013       3.843       3.583       3.256       2.892       2.477    
        2.099       1.712       1.425       1.136      0.7204      0.4266      0.3042      0.2220      0.1067       0.000    
  22    10.00       9.822       9.637       9.484       9.365       9.237       9.044       8.842       8.671       8.413    
        8.055       7.628       7.285       7.024       6.670       6.323       6.079       5.898       5.716       5.488    
        5.246       5.050       4.868       4.708       4.605       4.555       4.522       4.465       4.442       4.416    
        4.381       4.312       4.225       4.103       3.958       3.795       3.526       3.205       2.778       2.371    
        2.045       1.695       1.377      0.9486      0.5940      0.4279      0.3220      0.2143      8.5146E-02   0.000    
  23    10.00       9.781       9.600       9.474       9.344       9.152       8.934       8.776       8.561       8.292    
        7.929       7.551       7.286       6.955       6.574       6.272       6.067       5.901       5.695       5.422    
        5.163       4.933       4.692       4.405       4.151       4.101       4.174       4.209       4.258       4.275    
        4.262       4.219       4.146       4.049       3.912       3.743       3.496       3.097       2.650       2.316    
        2.005       1.607       1.149      0.7770      0.5802      0.4396      0.3219      0.2044      9.5202E-02   0.000    
  24    10.00       9.751       9.620       9.474       9.289       9.078       8.907       8.736       8.524       8.215    
        7.882       7.588       7.296       6.899       6.496       6.257       6.087       5.915       5.665       5.390    
        5.134       4.869       4.500       3.841       2.850       3.180       3.632       3.918       4.072       4.136    
        4.156       4.132       4.085       3.987       3.854       3.684       3.378       2.959       2.581       2.228    
        1.849       1.428       1.022      0.7430      0.5785      0.4378      0.3150      0.2387      0.1314       0.000    
  25    10.00       9.783       9.644       9.468       9.275       9.086       8.911       8.747       8.490       8.183    
        7.903       7.619       7.263       6.828       6.516       6.297       6.107       5.905       5.672       5.417    
        5.139       4.875       4.202       2.800     -0.3783       2.196       3.170       3.658       3.919       4.039    
        4.076       4.069       4.021       3.908       3.769       3.561       3.244       2.843       2.502       2.120    
        1.684       1.287      0.9547      0.7372      0.6028      0.4715      0.3447      0.2541      0.1659       0.000    
  26    10.00       9.814       9.684       9.495       9.295       9.130       8.949       8.743       8.479       8.240    
        7.998       7.622       7.173       6.803       6.575       6.378       6.152       5.889       5.642       5.423    
        5.209       4.918       4.296       3.277       2.207       2.727       3.290       3.646       3.867       3.996    
        4.031       4.022       3.957       3.847       3.714       3.489       3.076       2.704       2.416       1.949    
        1.474       1.144      0.9479      0.8010      0.6577      0.5119      0.3797      0.2782      0.1662       0.000    
  27    10.00       9.855       9.697       9.536       9.358       9.167       8.988       8.789       8.553       8.325    
        8.002       7.560       7.171       6.870       6.668       6.447       6.150       5.861       5.660       5.485    
        5.306       5.005       4.538       3.974       3.374       3.390       3.588       3.775       3.917       3.996    
        4.014       3.996       3.932       3.819       3.639       3.287       2.896       2.602       2.156       1.693    
        1.350       1.133      0.9889      0.8644      0.7323      0.5640      0.4063      0.3042      0.2044       0.000    
  28    10.00       9.869       9.735       9.582       9.421       9.241       9.055       8.855       8.634       8.370    
        7.977       7.576       7.238       6.948       6.740       6.516       6.262       5.977       5.709       5.535    
        5.374       5.158       4.846       4.422       4.041       3.869       3.879       3.965       4.002       4.029    
        4.022       3.989       3.913       3.750       3.481       3.112       2.774       2.369       1.925       1.614    
        1.361       1.181       1.038      0.9141      0.7782      0.6171      0.4608      0.3463      0.2112       0.000    
  29    10.00       9.875       9.748       9.634       9.479       9.315       9.137       8.937       8.703       8.352    
        7.966       7.615       7.296       7.056       6.816       6.575       6.342       6.114       5.853       5.626    
        5.453       5.270       5.055       4.793       4.446       4.260       4.188       4.158       4.141       4.102    
        4.051       3.978       3.878       3.658       3.329       2.988       2.629       2.216       1.873       1.644    
        1.435       1.236       1.080      0.9593      0.8268      0.6616      0.5003      0.3664      0.2136       0.000    
  30    10.00       9.887       9.782       9.681       9.548       9.397       9.238       9.017       8.726       8.370    
        7.972       7.618       7.351       7.115       6.879       6.645       6.450       6.253       6.017       5.774    
        5.565       5.397       5.209       5.021       4.798       4.596       4.514       4.384       4.309       4.203    
        4.084       3.958       3.805       3.569       3.289       2.959       2.582       2.197       1.941       1.728    
        1.490       1.294       1.144      0.9990      0.8498      0.7033      0.5340      0.3825      0.2311       0.000    
  31    10.00       9.906       9.816       9.723       9.626       9.507       9.335       9.076       8.741       8.372    
        7.990       7.660       7.407       7.166       6.957       6.740       6.535       6.384       6.157       5.922    
        5.722       5.546       5.381       5.209       5.067       4.906       4.748       4.600       4.448       4.295    
        4.114       3.935       3.770       3.570       3.287       2.937       2.574       2.250       2.039       1.847    
        1.601       1.374       1.197       1.044      0.8955      0.7399      0.5696      0.4094      0.2254       0.000    
  32    10.00       9.921       9.853       9.771       9.677       9.571       9.402       9.111       8.798       8.462    
        8.060       7.717       7.466       7.240       7.029       6.847       6.665       6.474       6.290       6.067    
        5.856       5.665       5.504       5.345       5.214       5.101       4.925       4.753       4.556       4.347    
        4.149       3.961       3.773       3.574       3.304       2.985       2.677       2.390       2.164       1.948    
        1.719       1.480       1.291       1.111      0.9401      0.7986      0.6239      0.4113      0.2044       0.000    
  33    10.00       9.932       9.876       9.811       9.721       9.601       9.388       9.108       8.847       8.538    
        8.148       7.809       7.550       7.306       7.111       6.954       6.793       6.603       6.398       6.194    
        5.973       5.769       5.581       5.425       5.319       5.206       5.040       4.832       4.629       4.426    
        4.225       4.044       3.848       3.591       3.332       3.040       2.775       2.543       2.307       2.072    
        1.857       1.630       1.421       1.232       1.040      0.8715      0.6746      0.4228      0.1993       0.000    
  34    10.00       9.939       9.902       9.846       9.735       9.572       9.369       9.162       8.895       8.561    
        8.221       7.892       7.617       7.375       7.198       7.073       6.902       6.712       6.490       6.298    
        6.098       5.859       5.670       5.525       5.417       5.288       5.099       4.912       4.699       4.478    
        4.308       4.139       3.963       3.707       3.433       3.161       2.916       2.708       2.464       2.225    
        2.017       1.808       1.585       1.390       1.186      0.9865      0.7342      0.4721      0.2489       0.000    
  35    10.00       9.950       9.908       9.837       9.702       9.532       9.384       9.209       8.966       8.610    
        8.249       7.948       7.673       7.462       7.308       7.167       6.992       6.784       6.571       6.359    
        6.178       5.967       5.775       5.638       5.522       5.394       5.188       4.960       4.736       4.526    
        4.396       4.239       4.047       3.852       3.612       3.319       3.067       2.896       2.645       2.371    
        2.174       1.963       1.751       1.560       1.329       1.106      0.8505      0.5679      0.2838       0.000    
  36    10.00       9.947       9.889       9.810       9.677       9.515       9.383       9.223       8.981       8.652    
        8.279       7.956       7.748       7.576       7.431       7.260       7.051       6.851       6.629       6.375    
        6.183       6.017       5.851       5.732       5.617       5.464       5.252       5.014       4.785       4.585    
        4.451       4.319       4.137       3.948       3.741       3.474       3.216       3.022       2.800       2.503    
        2.280       2.067       1.851       1.691       1.469       1.220      0.9642      0.6682      0.3399       0.000    
  37    10.00       9.932       9.868       9.783       9.649       9.503       9.355       9.202       8.982       8.631    
        8.256       7.989       7.857       7.694       7.506       7.337       7.105       6.865       6.603       6.353    
        6.197       6.065       5.909       5.788       5.655       5.480       5.282       5.041       4.833       4.673    
        4.525       4.376       4.187       4.019       3.803       3.546       3.340       3.150       2.902       2.607    
        2.339       2.130       1.956       1.777       1.566       1.334       1.088      0.7553      0.4093       0.000    
  38    10.00       9.926       9.843       9.753       9.631       9.488       9.327       9.167       8.937       8.613    
        8.326       8.109       7.940       7.794       7.588       7.336       7.079       6.801       6.524       6.357    
        6.233       6.077       5.936       5.828       5.690       5.492       5.256       5.036       4.905       4.770    
        4.608       4.437       4.251       4.078       3.865       3.625       3.437       3.244       2.949       2.639    
        2.405       2.210       2.033       1.853       1.665       1.440       1.185      0.8651      0.4490       0.000    
  39    10.00       9.906       9.823       9.735       9.615       9.457       9.285       9.118       8.909       8.648    
        8.424       8.261       8.074       7.871       7.584       7.265       6.953       6.661       6.489       6.375    
        6.218       6.055       5.951       5.852       5.726       5.500       5.257       5.097       4.977       4.838    
        4.666       4.500       4.310       4.122       3.939       3.737       3.520       3.295       2.989       2.682    
        2.436       2.240       2.101       1.958       1.752       1.523       1.266      0.9174      0.4494       0.000    
  40    10.00       9.891       9.811       9.723       9.603       9.440       9.263       9.094       8.917       8.701    
        8.516       8.377       8.154       7.841       7.483       7.131       6.815       6.610       6.490       6.362    
        6.192       6.049       5.953       5.843       5.696       5.516       5.343       5.178       5.033       4.904    
        4.745       4.557       4.362       4.183       4.011       3.806       3.572       3.344       3.011       2.675    
        2.452       2.288       2.143       2.019       1.811       1.555       1.319      0.9536      0.4709       0.000    
  41    10.00       9.900       9.806       9.709       9.577       9.430       9.275       9.125       8.955       8.763    
        8.588       8.424       8.133       7.742       7.349       7.029       6.776       6.599       6.478       6.335    
        6.164       6.041       5.940       5.822       5.689       5.554       5.423       5.265       5.093       4.944    
        4.800       4.618       4.420       4.255       4.074       3.872       3.633       3.315       2.945       2.686    
        2.504       2.332       2.198       2.042       1.823       1.569       1.360       1.012      0.5185       0.000    
  42    10.00       9.904       9.800       9.711       9.596       9.459       9.305       9.138       8.987       8.840    
        8.636       8.351       7.989       7.588       7.234       6.985       6.767       6.598       6.460       6.290    
        6.133       6.020       5.918       5.831       5.714       5.612       5.490       5.311       5.128       4.993    
        4.863       4.667       4.452       4.297       4.142       3.915       3.608       3.227       2.898       2.699    
        2.553       2.407       2.241       2.038       1.810       1.606       1.395       1.054      0.5426       0.000    
  43    10.00       9.905       9.810       9.719       9.629       9.507       9.355       9.191       9.028       8.823    
        8.538       8.212       7.842       7.456       7.179       6.970       6.763       6.590       6.424       6.256    
        6.108       6.002       5.924       5.855       5.752       5.640       5.522       5.348       5.183       5.071    
        4.906       4.690       4.487       4.334       4.155       3.879       3.518       3.150       2.920       2.763    
        2.608       2.450       2.247       2.028       1.820       1.622       1.432       1.051      0.4737       0.000    
  44    10.00       9.900       9.813       9.735       9.635       9.543       9.414       9.217       9.001       8.721    
        8.434       8.091       7.687       7.405       7.190       6.960       6.735       6.540       6.361       6.211    
        6.104       6.017       5.942       5.871       5.782       5.668       5.530       5.392       5.263       5.120    
        4.963       4.767       4.538       4.321       4.112       3.830       3.453       3.134       2.949       2.797    
        2.648       2.474       2.271       2.075       1.857       1.638       1.390      0.9004      0.3980       0.000    
  45    10.00       9.900       9.829       9.739       9.646       9.563       9.378       9.156       8.903       8.629    
        8.387       7.977       7.601       7.389       7.172       6.921       6.670       6.470       6.312       6.202    
        6.125       6.047       5.968       5.882       5.787       5.683       5.567       5.449       5.344       5.198    
        5.009       4.799       4.568       4.305       4.068       3.761       3.406       3.155       3.002       2.849    
        2.656       2.455       2.277       2.100       1.909       1.673       1.254      0.7551      0.3825       0.000    
  46    10.00       9.917       9.842       9.746       9.644       9.490       9.296       9.113       8.883       8.613    
        8.266       7.890       7.587       7.324       7.102       6.855       6.604       6.448       6.329       6.227    
        6.155       6.083       5.990       5.887       5.793       5.701       5.605       5.500       5.395       5.262    
        5.085       4.867       4.609       4.313       3.982       3.652       3.392       3.220       3.050       2.874    
        2.653       2.443       2.265       2.123       1.918       1.589       1.125      0.7116      0.3616       0.000    
  47    10.00       9.936       9.866       9.766       9.591       9.405       9.239       9.082       8.877       8.541    
        8.167       7.817       7.526       7.305       7.067       6.794       6.578       6.438       6.344       6.260    
        6.183       6.100       6.009       5.907       5.813       5.733       5.648       5.544       5.423       5.291    
        5.135       4.942       4.611       4.219       3.906       3.662       3.436       3.288       3.132       2.887    
        2.623       2.402       2.236       2.120       1.864       1.470       1.045      0.6851      0.3517       0.000    
  48    10.00       9.943       9.870       9.722       9.544       9.390       9.213       9.055       8.836       8.483    
        8.076       7.758       7.523       7.259       6.982       6.737       6.574       6.438       6.348       6.285    
        6.208       6.110       6.008       5.920       5.845       5.777       5.695       5.580       5.437       5.284    
        5.123       4.902       4.560       4.238       3.964       3.721       3.509       3.341       3.140       2.848    
        2.568       2.390       2.251       2.034       1.691       1.339      0.9978      0.6902      0.3714       0.000    
  49    10.00       9.941       9.835       9.703       9.558       9.379       9.201       9.024       8.752       8.379    
        8.028       7.731       7.447       7.197       6.984       6.753       6.543       6.420       6.360       6.300    
        6.228       6.116       6.004       5.930       5.868       5.814       5.724       5.585       5.423       5.276    
        5.108       4.837       4.548       4.332       4.081       3.796       3.540       3.337       3.106       2.793    
        2.567       2.411       2.204       1.877       1.572       1.284      0.9867      0.6903      0.3703       0.000    
  50    10.00       9.933       9.824       9.688       9.557       9.390       9.191       8.970       8.684       8.389    
        8.022       7.650       7.387       7.187       7.007       6.747       6.514       6.422       6.368       6.308    
        6.236       6.121       6.006       5.935       5.882       5.832       5.730       5.571       5.407       5.268    
        5.095       4.816       4.592       4.398       4.136       3.854       3.586       3.309       2.992       2.729    
        2.612       2.436       2.116       1.788       1.560       1.281       1.001      0.6763      0.3015       0.000    

 HEAD WILL BE SAVED ON UNIT   51 AT END OF TIME STEP  83, STRESS PERIOD    2

 DRAWDOWN WILL BE SAVED ON UNIT   52 AT END OF TIME STEP  83, STRESS PERIOD    2
1
  VOLUMETRIC BUDGET FOR ENTIRE MODEL AT END OF TIME STEP 83 IN STRESS PERIOD   2
  ------------------------------------------------------------------------------

     CUMULATIVE VOLUMES      L**3       RATES FOR THIS TIME STEP      L**3/T
     ------------------                 ------------------------

           IN:                                      IN:
           ---                                      ---
             STORAGE =       38695.0430               STORAGE =         395.8398
       CONSTANT HEAD =       52495.9648         CONSTANT HEAD =         680.0048
               WELLS =           0.0000                 WELLS =           0.0000

            TOTAL IN =       91191.0078              TOTAL IN =        1075.8446

          OUT:                                     OUT:
          ----                                     ----
             STORAGE =       9.4320E-03               STORAGE =           0.0000
       CONSTANT HEAD =       49690.9961         CONSTANT HEAD =         575.8447
               WELLS =       41500.0000                 WELLS =         500.0000

           TOTAL OUT =       91191.0078             TOTAL OUT =        1075.8447

            IN - OUT =           0.0000              IN - OUT =      -1.2207E-04

 PERCENT DISCREPANCY =           0.00     PERCENT DISCREPANCY =           0.00






          TIME SUMMARY AT END OF TIME STEP  83 IN STRESS PERIOD    2
                    SECONDS     MINUTES      HOURS       DAYS        YEARS
                    -----------------------------------------------------------
   TIME STEP LENGTH  86400.      1440.0      24.000      1.0000     2.73785E-03
 STRESS PERIOD TIME 7.17120E+06 1.19520E+05  1992.0      83.000     0.22724    
         TOTAL TIME 7.25760E+06 1.20960E+05  2016.0      84.000     0.22998    
1
 
 SOLVING FOR HEAD 

 OUTPUT CONTROL FOR STRESS PERIOD    2   TIME STEP  84
    SAVE HEAD FOR ALL LAYERS
    SAVE DRAWDOWN FOR ALL LAYERS
    SAVE BUDGET
    PRINT HEAD FOR ALL LAYERS
    PRINT BUDGET
 UBDSV1 SAVING "         STORAGE" ON UNIT  53 AT TIME STEP 84, STRESS PERIOD   2
 UBDSV2 SAVING "   CONSTANT HEAD" ON UNIT  53 AT TIME STEP 84, STRESS PERIOD   2
 UBDSV1 SAVING "FLOW RIGHT FACE " ON UNIT  53 AT TIME STEP 84, STRESS PERIOD   2
 UBDSV1 SAVING "FLOW FRONT FACE " ON UNIT  53 AT TIME STEP 84, STRESS PERIOD   2
1
              HEAD IN LAYER   1 AT END OF TIME STEP  84 IN STRESS PERIOD    2
  ---------------------------------------------------------------------------

            1           2           3           4           5           6           7           8           9          10
           11          12          13          14          15          16          17          18          19          20
           21          22          23          24          25          26          27          28          29          30
           31          32          33          34          35          36          37          38          39          40
           41          42          43          44          45          46          47          48          49          50
 ........................................................................................................................
   1    10.00       9.954       9.888       9.812       9.739       9.656       9.578       9.500       9.403       9.307    
        9.233       9.161       9.087       9.015       8.899       8.760       8.604       8.482       8.419       8.346    
        8.260       8.192       8.125       8.049       7.947       7.749       7.525       7.370       7.219       7.077    
        6.894       6.600       6.225       5.809       5.377       4.919       4.466       4.090       3.599       3.065    
        2.627       2.209       1.746       1.358       1.120      0.9184      0.7588      0.6433      0.4318       0.000    
   2    10.00       9.953       9.893       9.817       9.743       9.669       9.591       9.489       9.382       9.304    
        9.240       9.178       9.116       9.027       8.895       8.749       8.602       8.481       8.417       8.335    
        8.248       8.197       8.143       8.063       7.934       7.740       7.537       7.377       7.224       7.087    
        6.882       6.574       6.179       5.705       5.245       4.802       4.410       4.046       3.546       3.030    
        2.591       2.122       1.700       1.396       1.172      0.9995      0.8019      0.6261      0.3493       0.000    
   3    10.00       9.946       9.886       9.819       9.754       9.679       9.579       9.472       9.396       9.325    
        9.254       9.197       9.143       9.057       8.921       8.741       8.581       8.483       8.407       8.324    
        8.254       8.200       8.144       8.037       7.896       7.722       7.545       7.419       7.241       7.062    
        6.803       6.437       5.984       5.524       5.118       4.707       4.324       3.932       3.413       2.935    
        2.560       2.129       1.745       1.468       1.247       1.068      0.8341      0.5594      0.2537       0.000    
   4    10.00       9.946       9.887       9.822       9.748       9.661       9.558       9.476       9.411       9.338    
        9.275       9.228       9.167       9.070       8.937       8.745       8.579       8.487       8.402       8.328    
        8.252       8.184       8.113       7.999       7.860       7.703       7.543       7.387       7.228       7.024    
        6.697       6.210       5.728       5.378       5.044       4.621       4.162       3.702       3.288       2.930    
        2.581       2.183       1.823       1.574       1.326       1.099      0.8099      0.5029      0.2409       0.000    
   5    10.00       9.942       9.883       9.809       9.735       9.654       9.561       9.490       9.422       9.355    
        9.300       9.254       9.173       9.059       8.913       8.737       8.596       8.496       8.412       8.311    
        8.219       8.146       8.058       7.948       7.823       7.662       7.502       7.357       7.199       6.946    
        6.473       5.924       5.538       5.266       4.936       4.480       4.007       3.592       3.285       2.963    
        2.623       2.260       1.905       1.674       1.409       1.081      0.7369      0.4482      0.2254       0.000    
   6    10.00       9.934       9.864       9.802       9.734       9.647       9.568       9.507       9.436       9.372    
        9.320       9.264       9.162       9.033       8.905       8.758       8.616       8.499       8.387       8.270    
        8.177       8.091       8.014       7.915       7.755       7.595       7.467       7.320       7.097       6.711    
        6.186       5.687       5.367       5.134       4.834       4.384       3.916       3.573       3.314       3.025    
        2.718       2.400       2.039       1.731       1.380       1.019      0.6503      0.3864      0.2128       0.000    
   7    10.00       9.921       9.853       9.796       9.725       9.652       9.582       9.524       9.458       9.395    
        9.332       9.246       9.135       9.013       8.891       8.775       8.626       8.466       8.336       8.221    
        8.124       8.040       7.975       7.848       7.684       7.550       7.419       7.218       6.853       6.356    
        5.858       5.456       5.242       5.036       4.689       4.266       3.954       3.625       3.347       3.161    
        2.872       2.534       2.110       1.671       1.278      0.8841      0.5595      0.3888      0.2002       0.000    
   8    10.00       9.921       9.859       9.794       9.723       9.658       9.597       9.538       9.477       9.417    
        9.333       9.223       9.113       8.997       8.884       8.754       8.565       8.396       8.290       8.180    
        8.071       8.000       7.901       7.763       7.619       7.479       7.255       6.941       6.476       6.042    
        5.672       5.368       5.175       4.939       4.567       4.221       3.940       3.698       3.488       3.276    
        2.995       2.571       2.052       1.584       1.174      0.8265      0.5916      0.3805      0.1824       0.000    
   9    10.00       9.933       9.858       9.787       9.734       9.680       9.618       9.556       9.489       9.423    
        9.325       9.201       9.080       8.964       8.843       8.688       8.504       8.350       8.235       8.122    
        8.025       7.933       7.798       7.666       7.531       7.356       7.029       6.607       6.172       5.856    
        5.554       5.308       5.096       4.803       4.460       4.173       3.961       3.787       3.599       3.368    
        3.032       2.569       2.041       1.578       1.181      0.8438      0.5964      0.3835      0.1962       0.000    
  10    10.00       9.930       9.851       9.793       9.744       9.691       9.636       9.582       9.503       9.406    
        9.287       9.156       9.040       8.931       8.806       8.614       8.421       8.287       8.182       8.076    
        7.985       7.856       7.706       7.557       7.399       7.141       6.719       6.282       5.916       5.663    
        5.471       5.265       5.007       4.711       4.397       4.160       4.003       3.852       3.650       3.384    
        2.999       2.520       2.040       1.646       1.276      0.9271      0.6145      0.4070      0.2188       0.000    
  11    10.00       9.915       9.851       9.803       9.754       9.709       9.658       9.583       9.475       9.365    
        9.246       9.117       9.010       8.878       8.706       8.523       8.364       8.245       8.149       8.042    
        7.905       7.739       7.535       7.364       7.095       6.733       6.375       6.056       5.753       5.569    
        5.422       5.157       4.878       4.634       4.396       4.219       4.058       3.865       3.615       3.293    
        2.932       2.565       2.106       1.719       1.369       1.024      0.6895      0.3994      0.1676       0.000    
  12    10.00       9.918       9.858       9.807       9.766       9.719       9.660       9.553       9.428       9.323    
        9.211       9.076       8.945       8.787       8.636       8.468       8.315       8.212       8.105       7.955    
        7.725       7.476       7.234       6.994       6.634       6.362       6.163       5.852       5.604       5.470    
        5.304       5.055       4.829       4.605       4.439       4.270       4.069       3.834       3.531       3.210    
        2.907       2.576       2.135       1.756       1.428       1.068      0.7241      0.3761      0.1248       0.000    
  13    10.00       9.934       9.877       9.823       9.774       9.718       9.622       9.499       9.381       9.274    
        9.147       9.015       8.878       8.714       8.547       8.389       8.277       8.149       8.006       7.706    
        7.357       7.093       6.827       6.506       6.232       6.105       5.880       5.607       5.476       5.354    
        5.159       4.948       4.771       4.610       4.469       4.311       4.073       3.758       3.470       3.170    
        2.883       2.543       2.070       1.719       1.437       1.056      0.6639      0.3238      9.9115E-02   0.000    
  14    10.00       9.948       9.900       9.842       9.773       9.681       9.556       9.432       9.326       9.207    
        9.076       8.953       8.797       8.625       8.476       8.339       8.168       7.999       7.713       7.266    
        6.932       6.678       6.324       6.075       5.950       5.836       5.616       5.449       5.321       5.193    
        5.026       4.880       4.757       4.622       4.471       4.318       4.047       3.708       3.412       3.105    
        2.814       2.392       1.944       1.670       1.351       1.008      0.6625      0.2988      8.5111E-02   0.000    
  15    10.00       9.959       9.908       9.843       9.760       9.625       9.473       9.364       9.264       9.146    
        9.044       8.916       8.716       8.519       8.382       8.165       7.947       7.770       7.330       6.844    
        6.545       6.206       5.910       5.820       5.757       5.612       5.425       5.270       5.173       5.076    
        4.952       4.847       4.749       4.630       4.484       4.299       3.983       3.609       3.300       3.024    
        2.713       2.290       1.941       1.600       1.221      0.9205      0.5905      0.2732      9.2424E-02   0.000    
  16    10.00       9.966       9.911       9.830       9.708       9.546       9.411       9.324       9.235       9.117    
        8.994       8.803       8.552       8.361       8.164       7.914       7.769       7.408       6.792       6.370    
        6.109       5.823       5.720       5.670       5.550       5.362       5.218       5.144       5.101       5.019    
        4.916       4.823       4.739       4.619       4.442       4.190       3.830       3.512       3.273       2.987    
        2.628       2.215       1.840       1.470       1.146      0.8133      0.5284      0.2752      9.8259E-02   0.000    
  17    10.00       9.960       9.894       9.786       9.647       9.479       9.359       9.283       9.177       9.050    
        8.828       8.561       8.351       8.157       7.901       7.653       7.347       6.772       6.265       6.006    
        5.804       5.656       5.585       5.462       5.277       5.145       5.104       5.085       5.042       4.961    
        4.872       4.791       4.703       4.580       4.322       3.994       3.720       3.518       3.290       2.946    
        2.495       2.093       1.746       1.400       1.025      0.6771      0.4496      0.2493      0.1039       0.000    
  18    10.00       9.944       9.857       9.732       9.549       9.407       9.322       9.209       9.078       8.887    
        8.604       8.383       8.186       7.889       7.557       7.215       6.789       6.293       5.987       5.791    
        5.640       5.512       5.397       5.231       5.105       5.066       5.050       5.029       4.972       4.894    
        4.820       4.739       4.627       4.436       4.172       3.912       3.703       3.540       3.253       2.830    
        2.398       1.981       1.633       1.309      0.9493      0.6235      0.3795      0.2081      9.7166E-02   0.000    
  19    10.00       9.924       9.824       9.641       9.459       9.375       9.268       9.120       8.961       8.743    
        8.492       8.274       7.957       7.534       7.190       6.856       6.402       6.004       5.813       5.686    
        5.527       5.364       5.235       5.097       5.030       5.012       4.991       4.947       4.877       4.810    
        4.738       4.649       4.502       4.311       4.102       3.886       3.711       3.502       3.095       2.679    
        2.338       1.913       1.538       1.223      0.8708      0.5611      0.3411      0.1974      9.8836E-02   0.000    
  20    10.00       9.902       9.749       9.558       9.423       9.328       9.208       9.049       8.860       8.658    
        8.396       8.070       7.641       7.255       6.952       6.556       6.146       5.945       5.784       5.611    
        5.439       5.269       5.109       5.008       4.963       4.927       4.875       4.830       4.762       4.701    
        4.632       4.542       4.398       4.236       4.052       3.873       3.689       3.363       2.940       2.589    
        2.213       1.801       1.469       1.154      0.8271      0.5039      0.2963      0.1991      0.1006       0.000    
  21    10.00       9.844       9.687       9.530       9.389       9.282       9.150       8.947       8.755       8.559    
        8.218       7.807       7.407       7.092       6.767       6.389       6.099       5.924       5.739       5.550    
        5.340       5.147       5.007       4.903       4.826       4.758       4.716       4.675       4.603       4.557    
        4.511       4.418       4.298       4.163       4.003       3.834       3.575       3.248       2.885       2.472    
        2.095       1.709       1.422       1.134      0.7190      0.4259      0.3036      0.2216      0.1065       0.000    
  22    10.00       9.821       9.635       9.482       9.363       9.234       9.040       8.837       8.667       8.407    
        8.048       7.621       7.277       7.016       6.661       6.313       6.069       5.888       5.705       5.478    
        5.235       5.040       4.858       4.697       4.594       4.544       4.511       4.454       4.431       4.405    
        4.371       4.302       4.215       4.093       3.948       3.786       3.518       3.198       2.771       2.366    
        2.040       1.692       1.374      0.9468      0.5930      0.4272      0.3214      0.2139      8.5001E-02   0.000    
  23    10.00       9.781       9.599       9.472       9.341       9.148       8.930       8.772       8.556       8.287    
        7.922       7.543       7.278       6.947       6.565       6.263       6.057       5.891       5.684       5.411    
        5.153       4.922       4.681       4.395       4.140       4.090       4.163       4.198       4.246       4.264    
        4.251       4.209       4.136       4.039       3.902       3.734       3.487       3.090       2.644       2.311    
        2.000       1.604       1.147      0.7756      0.5792      0.4389      0.3213      0.2041      9.5045E-02   0.000    
  24    10.00       9.750       9.618       9.472       9.287       9.075       8.903       8.731       8.519       8.210    
        7.875       7.580       7.288       6.890       6.487       6.248       6.077       5.905       5.655       5.380    
        5.123       4.858       4.489       3.830       2.838       3.169       3.621       3.907       4.061       4.124    
        4.145       4.121       4.074       3.976       3.845       3.675       3.369       2.952       2.575       2.223    
        1.846       1.425       1.020      0.7417      0.5775      0.4371      0.3145      0.2384      0.1312       0.000    
  25    10.00       9.782       9.643       9.467       9.272       9.083       8.907       8.743       8.485       8.177    
        7.896       7.612       7.255       6.819       6.506       6.288       6.097       5.894       5.662       5.406    
        5.128       4.864       4.191       2.788     -0.3907       2.184       3.158       3.647       3.907       4.028    
        4.065       4.058       4.010       3.897       3.759       3.552       3.236       2.836       2.496       2.116    
        1.681       1.285      0.9531      0.7360      0.6018      0.4708      0.3441      0.2537      0.1656       0.000    
  26    10.00       9.814       9.682       9.493       9.292       9.127       8.945       8.739       8.474       8.234    
        7.992       7.615       7.165       6.794       6.566       6.369       6.142       5.879       5.632       5.413    
        5.199       4.907       4.285       3.266       2.195       2.715       3.278       3.634       3.855       3.985    
        4.020       4.011       3.947       3.837       3.704       3.481       3.068       2.698       2.411       1.944    
        1.471       1.142      0.9464      0.7997      0.6567      0.5111      0.3791      0.2778      0.1659       0.000    
  27    10.00       9.855       9.696       9.534       9.356       9.164       8.984       8.785       8.549       8.319    
        7.996       7.552       7.163       6.861       6.659       6.438       6.140       5.851       5.650       5.475    
        5.295       4.994       4.527       3.963       3.362       3.379       3.577       3.763       3.906       3.985    
        4.003       3.985       3.922       3.809       3.629       3.279       2.889       2.596       2.151       1.690    
        1.347       1.131      0.9873      0.8630      0.7312      0.5631      0.4057      0.3037      0.2041       0.000    
  28    10.00       9.868       9.734       9.580       9.419       9.238       9.052       8.852       8.629       8.365    
        7.971       7.568       7.230       6.940       6.731       6.507       6.252       5.967       5.699       5.525    
        5.364       5.148       4.835       4.411       4.030       3.857       3.868       3.953       3.991       4.018    
        4.011       3.978       3.903       3.741       3.473       3.104       2.767       2.364       1.922       1.611    
        1.358       1.179       1.036      0.9127      0.7770      0.6162      0.4601      0.3458      0.2109       0.000    
  29    10.00       9.875       9.748       9.633       9.478       9.313       9.134       8.933       8.698       8.346    
        7.959       7.608       7.288       7.048       6.807       6.566       6.333       6.105       5.843       5.616    
        5.443       5.260       5.044       4.782       4.435       4.248       4.177       4.147       4.129       4.091    
        4.041       3.968       3.868       3.649       3.321       2.982       2.623       2.212       1.870       1.641    
        1.433       1.234       1.078      0.9579      0.8256      0.6606      0.4996      0.3659      0.2133       0.000    
  30    10.00       9.886       9.781       9.680       9.546       9.395       9.236       9.013       8.722       8.364    
        7.966       7.611       7.343       7.107       6.871       6.636       6.441       6.244       6.007       5.764    
        5.555       5.387       5.199       5.010       4.787       4.585       4.503       4.373       4.298       4.193    
        4.074       3.949       3.797       3.561       3.282       2.953       2.578       2.193       1.938       1.725    
        1.488       1.292       1.142      0.9977      0.8487      0.7024      0.5333      0.3819      0.2308       0.000    
  31    10.00       9.906       9.815       9.722       9.624       9.505       9.333       9.073       8.737       8.367    
        7.984       7.653       7.400       7.159       6.948       6.731       6.526       6.375       6.147       5.913    
        5.712       5.536       5.371       5.198       5.057       4.896       4.737       4.589       4.437       4.285    
        4.106       3.927       3.763       3.563       3.281       2.933       2.570       2.247       2.036       1.845    
        1.599       1.372       1.196       1.043      0.8943      0.7390      0.5689      0.4088      0.2251       0.000    
  32    10.00       9.921       9.852       9.770       9.676       9.570       9.400       9.108       8.795       8.458    
        8.054       7.711       7.459       7.232       7.021       6.839       6.656       6.466       6.281       6.057    
        5.846       5.655       5.494       5.335       5.204       5.091       4.915       4.743       4.547       4.339    
        4.141       3.954       3.766       3.569       3.299       2.980       2.673       2.386       2.161       1.945    
        1.716       1.478       1.290       1.110      0.9390      0.7976      0.6232      0.4108      0.2042       0.000    
  33    10.00       9.932       9.876       9.811       9.720       9.600       9.387       9.105       8.843       8.534    
        8.143       7.803       7.543       7.298       7.104       6.946       6.785       6.595       6.389       6.185    
        5.964       5.760       5.572       5.416       5.309       5.196       5.030       4.823       4.621       4.419    
        4.218       4.038       3.842       3.586       3.327       3.036       2.771       2.540       2.304       2.069    
        1.855       1.628       1.420       1.231       1.039      0.8705      0.6739      0.4224      0.1991       0.000    
  34    10.00       9.939       9.902       9.845       9.734       9.571       9.367       9.160       8.892       8.557    
        8.216       7.887       7.611       7.368       7.191       7.066       6.894       6.704       6.482       6.290    
        6.089       5.850       5.661       5.516       5.408       5.279       5.090       4.904       4.691       4.471    
        4.302       4.133       3.957       3.702       3.428       3.157       2.913       2.705       2.461       2.222    
        2.015       1.806       1.583       1.389       1.185      0.9857      0.7336      0.4717      0.2487       0.000    
  35    10.00       9.950       9.907       9.837       9.702       9.530       9.382       9.207       8.963       8.606    
        8.244       7.943       7.667       7.456       7.301       7.160       6.985       6.776       6.564       6.351    
        6.170       5.959       5.767       5.630       5.513       5.386       5.180       4.953       4.730       4.521    
        4.391       4.234       4.043       3.847       3.608       3.316       3.064       2.893       2.642       2.369    
        2.172       1.961       1.750       1.558       1.328       1.105      0.8500      0.5675      0.2836       0.000    
  36    10.00       9.947       9.888       9.809       9.676       9.514       9.382       9.221       8.978       8.648    
        8.275       7.951       7.743       7.570       7.425       7.254       7.045       6.844       6.622       6.367    
        6.176       6.010       5.844       5.725       5.609       5.457       5.245       5.007       4.779       4.580    
        4.447       4.315       4.133       3.944       3.738       3.471       3.213       3.020       2.798       2.501    
        2.278       2.066       1.849       1.690       1.468       1.220      0.9636      0.6678      0.3397       0.000    
  37    10.00       9.932       9.867       9.782       9.648       9.501       9.354       9.200       8.980       8.628    
        8.252       7.984       7.852       7.689       7.500       7.331       7.098       6.858       6.596       6.347    
        6.190       6.058       5.902       5.782       5.649       5.474       5.276       5.036       4.829       4.668    
        4.521       4.372       4.183       4.016       3.799       3.543       3.337       3.148       2.900       2.605    
        2.338       2.129       1.955       1.776       1.565       1.333       1.087      0.7549      0.4091       0.000    
  38    10.00       9.926       9.842       9.752       9.630       9.487       9.326       9.165       8.934       8.610    
        8.323       8.104       7.935       7.789       7.582       7.330       7.073       6.795       6.518       6.351    
        6.227       6.071       5.930       5.823       5.685       5.487       5.251       5.032       4.901       4.766    
        4.604       4.433       4.248       4.075       3.862       3.622       3.434       3.242       2.947       2.637    
        2.404       2.209       2.032       1.852       1.664       1.439       1.185      0.8646      0.4487       0.000    
  39    10.00       9.906       9.823       9.734       9.615       9.456       9.284       9.116       8.907       8.646    
        8.421       8.258       8.070       7.867       7.579       7.260       6.948       6.656       6.484       6.370    
        6.213       6.050       5.947       5.848       5.721       5.496       5.253       5.094       4.973       4.834    
        4.663       4.496       4.307       4.119       3.936       3.734       3.518       3.293       2.987       2.680    
        2.435       2.239       2.100       1.957       1.751       1.522       1.265      0.9170      0.4492       0.000    
  40    10.00       9.891       9.811       9.722       9.602       9.439       9.261       9.093       8.914       8.698    
        8.513       8.374       8.150       7.837       7.479       7.126       6.811       6.605       6.486       6.358    
        6.188       6.045       5.949       5.839       5.692       5.512       5.339       5.174       5.030       4.901    
        4.742       4.554       4.359       4.180       4.009       3.803       3.570       3.342       3.010       2.673    
        2.451       2.286       2.141       2.018       1.810       1.555       1.318      0.9532      0.4707       0.000    
  41    10.00       9.900       9.806       9.709       9.577       9.429       9.274       9.123       8.953       8.761    
        8.585       8.421       8.130       7.739       7.345       7.025       6.772       6.595       6.474       6.331    
        6.160       6.037       5.936       5.818       5.686       5.551       5.420       5.262       5.090       4.941    
        4.797       4.615       4.417       4.252       4.071       3.870       3.631       3.313       2.944       2.685    
        2.502       2.331       2.197       2.041       1.822       1.568       1.359       1.012      0.5183       0.000    
  42    10.00       9.903       9.800       9.710       9.596       9.458       9.304       9.137       8.986       8.838    
        8.634       8.348       7.987       7.585       7.231       6.982       6.763       6.595       6.456       6.286    
        6.129       6.016       5.915       5.828       5.711       5.609       5.487       5.308       5.125       4.990    
        4.860       4.664       4.449       4.294       4.139       3.913       3.606       3.226       2.896       2.697    
        2.552       2.406       2.240       2.037       1.810       1.605       1.394       1.054      0.5423       0.000    
  43    10.00       9.905       9.810       9.719       9.628       9.507       9.354       9.190       9.026       8.821    
        8.536       8.210       7.840       7.453       7.176       6.967       6.760       6.587       6.421       6.253    
        6.105       5.999       5.921       5.852       5.749       5.637       5.519       5.345       5.180       5.068    
        4.903       4.687       4.485       4.331       4.153       3.877       3.516       3.149       2.919       2.761    
        2.607       2.449       2.246       2.027       1.819       1.621       1.432       1.051      0.4735       0.000    
  44    10.00       9.899       9.813       9.734       9.635       9.542       9.413       9.216       9.000       8.720    
        8.433       8.089       7.685       7.403       7.187       6.957       6.732       6.537       6.358       6.208    
        6.101       6.014       5.939       5.868       5.779       5.665       5.527       5.389       5.260       5.118    
        4.960       4.764       4.535       4.319       4.110       3.828       3.451       3.132       2.948       2.795    
        2.647       2.473       2.270       2.074       1.856       1.637       1.389      0.9000      0.3978       0.000    
  45    10.00       9.899       9.829       9.738       9.645       9.562       9.377       9.155       8.902       8.627    
        8.385       7.975       7.599       7.387       7.169       6.919       6.667       6.468       6.309       6.199    
        6.122       6.045       5.965       5.879       5.784       5.681       5.565       5.446       5.341       5.195    
        5.006       4.797       4.565       4.303       4.065       3.759       3.405       3.153       3.001       2.848    
        2.655       2.454       2.276       2.099       1.909       1.673       1.253      0.7548      0.3823       0.000    
  46    10.00       9.917       9.841       9.746       9.643       9.489       9.296       9.112       8.881       8.612    
        8.265       7.888       7.585       7.322       7.099       6.853       6.602       6.446       6.326       6.224    
        6.152       6.081       5.987       5.884       5.790       5.698       5.603       5.498       5.392       5.259    
        5.083       4.864       4.607       4.311       3.980       3.650       3.391       3.219       3.049       2.873    
        2.651       2.442       2.264       2.122       1.917       1.588       1.124      0.7113      0.3614       0.000    
  47    10.00       9.936       9.866       9.766       9.590       9.404       9.238       9.082       8.876       8.540    
        8.166       7.816       7.524       7.303       7.065       6.792       6.575       6.436       6.341       6.257    
        6.180       6.098       6.006       5.904       5.811       5.730       5.646       5.541       5.420       5.288    
        5.133       4.939       4.608       4.216       3.905       3.661       3.434       3.286       3.131       2.886    
        2.622       2.401       2.235       2.119       1.863       1.470       1.044      0.6848      0.3515       0.000    
  48    10.00       9.943       9.870       9.721       9.544       9.390       9.213       9.054       8.835       8.482    
        8.074       7.757       7.521       7.257       6.980       6.735       6.572       6.436       6.345       6.283    
        6.206       6.107       6.006       5.917       5.842       5.774       5.693       5.578       5.435       5.281    
        5.121       4.899       4.558       4.236       3.962       3.719       3.507       3.340       3.139       2.846    
        2.567       2.389       2.250       2.033       1.690       1.338      0.9974      0.6900      0.3712       0.000    
  49    10.00       9.941       9.835       9.703       9.558       9.378       9.201       9.023       8.751       8.378    
        8.026       7.729       7.445       7.195       6.981       6.751       6.540       6.417       6.357       6.297    
        6.225       6.113       6.001       5.927       5.865       5.812       5.721       5.582       5.420       5.274    
        5.105       4.835       4.545       4.330       4.079       3.795       3.538       3.336       3.104       2.792    
        2.566       2.410       2.203       1.876       1.571       1.283      0.9864      0.6901      0.3701       0.000    
  50    10.00       9.933       9.823       9.688       9.557       9.389       9.191       8.969       8.683       8.387    
        8.021       7.649       7.385       7.185       7.005       6.745       6.511       6.419       6.366       6.305    
        6.233       6.118       6.003       5.932       5.880       5.830       5.727       5.569       5.405       5.265    
        5.092       4.814       4.590       4.396       4.134       3.852       3.584       3.307       2.990       2.728    
        2.611       2.435       2.116       1.787       1.560       1.281       1.000      0.6760      0.3014       0.000    

 HEAD WILL BE SAVED ON UNIT   51 AT END OF TIME STEP  84, STRESS PERIOD    2

 DRAWDOWN WILL BE SAVED ON UNIT   52 AT END OF TIME STEP  84, STRESS PERIOD    2
1
  VOLUMETRIC BUDGET FOR ENTIRE MODEL AT END OF TIME STEP 84 IN STRESS PERIOD   2
  ------------------------------------------------------------------------------

     CUMULATIVE VOLUMES      L**3       RATES FOR THIS TIME STEP      L**3/T
     ------------------                 ------------------------

           IN:                                      IN:
           ---                                      ---
             STORAGE =       39088.7422               STORAGE =         393.7004
       CONSTANT HEAD =       53177.5000         CONSTANT HEAD =         681.5349
               WELLS =           0.0000                 WELLS =           0.0000

            TOTAL IN =       92266.2422              TOTAL IN =        1075.2352

          OUT:                                     OUT:
          ----                                     ----
             STORAGE =       9.4320E-03               STORAGE =           0.0000
       CONSTANT HEAD =       50266.2305         CONSTANT HEAD =         575.2352
               WELLS =       42000.0000                 WELLS =         500.0000

           TOTAL OUT =       92266.2422             TOTAL OUT =        1075.2352

            IN - OUT =           0.0000              IN - OUT =           0.0000

 PERCENT DISCREPANCY =           0.00     PERCENT DISCREPANCY =           0.00






          TIME SUMMARY AT END OF TIME STEP  84 IN STRESS PERIOD    2
                    SECONDS     MINUTES      HOURS       DAYS        YEARS
                    -----------------------------------------------------------
   TIME STEP LENGTH  86400.      1440.0      24.000      1.0000     2.73785E-03
 STRESS PERIOD TIME 7.25760E+06 1.20960E+05  2016.0      84.000     0.22998    
         TOTAL TIME 7.34400E+06 1.22400E+05  2040.0      85.000     0.23272    
1
 
 SOLVING FOR HEAD 

 OUTPUT CONTROL FOR STRESS PERIOD    2   TIME STEP  85
    SAVE HEAD FOR ALL LAYERS
    SAVE DRAWDOWN FOR ALL LAYERS
    SAVE BUDGET
    PRINT HEAD FOR ALL LAYERS
    PRINT BUDGET
 UBDSV1 SAVING "         STORAGE" ON UNIT  53 AT TIME STEP 85, STRESS PERIOD   2
 UBDSV2 SAVING "   CONSTANT HEAD" ON UNIT  53 AT TIME STEP 85, STRESS PERIOD   2
 UBDSV1 SAVING "FLOW RIGHT FACE " ON UNIT  53 AT TIME STEP 85, STRESS PERIOD   2
 UBDSV1 SAVING "FLOW FRONT FACE " ON UNIT  53 AT TIME STEP 85, STRESS PERIOD   2
1
              HEAD IN LAYER   1 AT END OF TIME STEP  85 IN STRESS PERIOD    2
  ---------------------------------------------------------------------------

            1           2           3           4           5           6           7           8           9          10
           11          12          13          14          15          16          17          18          19          20
           21          22          23          24          25          26          27          28          29          30
           31          32          33          34          35          36          37          38          39          40
           41          42          43          44          45          46          47          48          49          50
 ........................................................................................................................
   1    10.00       9.954       9.887       9.812       9.739       9.656       9.577       9.499       9.401       9.306    
        9.231       9.159       9.085       9.013       8.897       8.757       8.602       8.479       8.416       8.343    
        8.256       8.188       8.121       8.045       7.944       7.745       7.521       7.366       7.215       7.073    
        6.890       6.596       6.221       5.804       5.373       4.915       4.463       4.086       3.596       3.062    
        2.625       2.207       1.744       1.357       1.119      0.9174      0.7580      0.6426      0.4314       0.000    
   2    10.00       9.952       9.892       9.817       9.742       9.669       9.591       9.488       9.381       9.302    
        9.238       9.176       9.114       9.025       8.892       8.746       8.600       8.478       8.414       8.332    
        8.245       8.193       8.139       8.060       7.930       7.736       7.532       7.373       7.220       7.082    
        6.877       6.569       6.175       5.700       5.241       4.798       4.406       4.042       3.543       3.027    
        2.588       2.120       1.698       1.395       1.171      0.9984      0.8011      0.6254      0.3490       0.000    
   3    10.00       9.946       9.886       9.819       9.753       9.679       9.578       9.470       9.395       9.324    
        9.252       9.196       9.141       9.055       8.919       8.738       8.578       8.480       8.404       8.321    
        8.250       8.196       8.140       8.033       7.892       7.718       7.541       7.415       7.237       7.057    
        6.799       6.433       5.980       5.519       5.114       4.703       4.320       3.929       3.410       2.932    
        2.557       2.127       1.743       1.466       1.245       1.067      0.8332      0.5588      0.2534       0.000    
   4    10.00       9.946       9.887       9.822       9.747       9.661       9.557       9.475       9.409       9.337    
        9.274       9.227       9.165       9.068       8.935       8.742       8.576       8.484       8.399       8.325    
        8.248       8.181       8.109       7.996       7.856       7.699       7.539       7.383       7.224       7.019    
        6.693       6.205       5.723       5.374       5.040       4.617       4.158       3.699       3.284       2.927    
        2.578       2.181       1.821       1.573       1.325       1.098      0.8091      0.5024      0.2407       0.000    
   5    10.00       9.942       9.883       9.809       9.734       9.653       9.560       9.489       9.421       9.353    
        9.298       9.252       9.172       9.057       8.910       8.735       8.593       8.493       8.408       8.308    
        8.215       8.142       8.054       7.944       7.819       7.657       7.497       7.353       7.194       6.941    
        6.469       5.919       5.533       5.261       4.931       4.476       4.002       3.588       3.282       2.960    
        2.620       2.257       1.903       1.673       1.407       1.080      0.7361      0.4477      0.2252       0.000    
   6    10.00       9.934       9.864       9.802       9.734       9.646       9.567       9.506       9.435       9.370    
        9.319       9.262       9.160       9.031       8.902       8.755       8.613       8.496       8.383       8.266    
        8.173       8.087       8.010       7.911       7.750       7.591       7.462       7.315       7.092       6.706    
        6.181       5.682       5.361       5.128       4.829       4.379       3.912       3.568       3.310       3.022    
        2.714       2.397       2.037       1.730       1.378       1.018      0.6496      0.3860      0.2125       0.000    
   7    10.00       9.921       9.853       9.795       9.724       9.651       9.581       9.523       9.457       9.394    
        9.330       9.244       9.133       9.011       8.888       8.773       8.623       8.462       8.332       8.218    
        8.120       8.036       7.971       7.844       7.679       7.546       7.414       7.213       6.848       6.351    
        5.852       5.451       5.237       5.031       4.683       4.261       3.949       3.620       3.343       3.157    
        2.869       2.531       2.108       1.669       1.276      0.8830      0.5588      0.3884      0.2000       0.000    
   8    10.00       9.920       9.859       9.793       9.722       9.657       9.596       9.537       9.476       9.416    
        9.331       9.222       9.111       8.995       8.882       8.751       8.562       8.393       8.286       8.176    
        8.067       7.996       7.896       7.758       7.614       7.474       7.250       6.936       6.470       6.035    
        5.666       5.362       5.169       4.933       4.562       4.216       3.935       3.694       3.483       3.272    
        2.992       2.568       2.049       1.582       1.173      0.8255      0.5909      0.3801      0.1822       0.000    
   9    10.00       9.933       9.858       9.786       9.733       9.679       9.617       9.555       9.487       9.422    
        9.324       9.199       9.078       8.962       8.840       8.685       8.501       8.346       8.231       8.118    
        8.021       7.928       7.793       7.661       7.526       7.351       7.024       6.601       6.166       5.849    
        5.548       5.301       5.090       4.797       4.455       4.167       3.956       3.782       3.595       3.364    
        3.028       2.566       2.039       1.576       1.179      0.8427      0.5956      0.3830      0.1959       0.000    
  10    10.00       9.930       9.851       9.792       9.743       9.691       9.635       9.581       9.502       9.405    
        9.285       9.154       9.038       8.929       8.803       8.611       8.418       8.283       8.178       8.072    
        7.981       7.852       7.701       7.552       7.393       7.135       6.713       6.275       5.909       5.656    
        5.464       5.259       5.000       4.705       4.391       4.154       3.998       3.847       3.645       3.379    
        2.995       2.517       2.037       1.644       1.274      0.9259      0.6137      0.4065      0.2186       0.000    
  11    10.00       9.915       9.851       9.802       9.754       9.709       9.657       9.581       9.474       9.364    
        9.244       9.115       9.007       8.875       8.702       8.519       8.360       8.241       8.145       8.037    
        7.901       7.734       7.529       7.358       7.089       6.726       6.368       6.049       5.746       5.562    
        5.415       5.149       4.871       4.627       4.390       4.213       4.052       3.860       3.610       3.289    
        2.928       2.561       2.103       1.717       1.367       1.022      0.6885      0.3989      0.1674       0.000    
  12    10.00       9.918       9.858       9.807       9.765       9.719       9.659       9.552       9.426       9.321    
        9.209       9.074       8.942       8.784       8.633       8.464       8.311       8.208       8.100       7.951    
        7.720       7.470       7.228       6.987       6.627       6.354       6.156       5.844       5.597       5.463    
        5.297       5.048       4.822       4.599       4.432       4.264       4.063       3.828       3.526       3.205    
        2.902       2.573       2.132       1.754       1.426       1.066      0.7231      0.3756      0.1247       0.000    
  13    10.00       9.933       9.877       9.822       9.773       9.717       9.621       9.498       9.379       9.272    
        9.145       9.012       8.875       8.710       8.543       8.385       8.273       8.144       8.001       7.700    
        7.351       7.087       6.820       6.499       6.224       6.097       5.872       5.599       5.468       5.346    
        5.151       4.940       4.764       4.603       4.462       4.305       4.067       3.753       3.464       3.165    
        2.878       2.539       2.067       1.717       1.435       1.055      0.6629      0.3233      9.8972E-02   0.000    
  14    10.00       9.948       9.900       9.842       9.773       9.680       9.555       9.431       9.324       9.204    
        9.074       8.950       8.794       8.621       8.472       8.335       8.164       7.994       7.707       7.260    
        6.925       6.670       6.316       6.067       5.942       5.828       5.607       5.440       5.312       5.185    
        5.018       4.872       4.749       4.614       4.463       4.311       4.041       3.702       3.407       3.100    
        2.809       2.388       1.941       1.668       1.349       1.007      0.6615      0.2983      8.4981E-02   0.000    
  15    10.00       9.958       9.908       9.843       9.760       9.623       9.472       9.362       9.262       9.144    
        9.041       8.913       8.712       8.515       8.377       8.160       7.942       7.765       7.324       6.837    
        6.537       6.198       5.901       5.811       5.748       5.603       5.416       5.261       5.163       5.067    
        4.943       4.839       4.740       4.622       4.476       4.292       3.976       3.603       3.295       3.018    
        2.708       2.287       1.938       1.597       1.219      0.9190      0.5896      0.2727      9.2276E-02   0.000    
  16    10.00       9.966       9.910       9.830       9.708       9.545       9.409       9.322       9.233       9.114    
        8.991       8.800       8.548       8.357       8.159       7.908       7.763       7.401       6.784       6.361    
        6.100       5.813       5.711       5.661       5.541       5.353       5.208       5.134       5.091       5.010    
        4.907       4.814       4.730       4.611       4.434       4.182       3.823       3.506       3.267       2.981    
        2.623       2.211       1.837       1.467       1.144      0.8119      0.5275      0.2747      9.8096E-02   0.000    
  17    10.00       9.960       9.893       9.785       9.646       9.477       9.357       9.281       9.174       9.047    
        8.824       8.557       8.346       8.151       7.896       7.647       7.340       6.764       6.256       5.996    
        5.794       5.646       5.576       5.453       5.267       5.135       5.095       5.075       5.033       4.951    
        4.863       4.782       4.694       4.571       4.314       3.987       3.713       3.511       3.284       2.940    
        2.490       2.089       1.743       1.398       1.023      0.6760      0.4488      0.2489      0.1037       0.000    
  18    10.00       9.943       9.857       9.731       9.547       9.405       9.320       9.206       9.075       8.884    
        8.600       8.378       8.181       7.883       7.550       7.208       6.780       6.284       5.978       5.781    
        5.630       5.502       5.388       5.221       5.095       5.056       5.040       5.019       4.962       4.884    
        4.811       4.730       4.618       4.427       4.163       3.904       3.696       3.533       3.247       2.825    
        2.393       1.977       1.630       1.306      0.9476      0.6224      0.3789      0.2078      9.6997E-02   0.000    
  19    10.00       9.924       9.824       9.639       9.457       9.373       9.265       9.117       8.958       8.739    
        8.488       8.268       7.951       7.527       7.182       6.848       6.393       5.995       5.803       5.676    
        5.517       5.354       5.224       5.086       5.020       5.002       4.980       4.937       4.867       4.800    
        4.728       4.639       4.493       4.302       4.093       3.878       3.704       3.495       3.088       2.674    
        2.333       1.910       1.535       1.221      0.8692      0.5601      0.3405      0.1970      9.8662E-02   0.000    
  20    10.00       9.901       9.748       9.556       9.421       9.326       9.205       9.046       8.856       8.653    
        8.391       8.064       7.634       7.247       6.943       6.547       6.137       5.935       5.774       5.601    
        5.428       5.258       5.099       4.998       4.953       4.917       4.865       4.820       4.752       4.691    
        4.622       4.532       4.388       4.227       4.043       3.865       3.681       3.356       2.933       2.584    
        2.209       1.797       1.466       1.152      0.8256      0.5030      0.2958      0.1987      0.1004       0.000    
  21    10.00       9.844       9.685       9.528       9.387       9.279       9.147       8.943       8.750       8.554    
        8.212       7.801       7.399       7.083       6.759       6.380       6.089       5.914       5.729       5.540    
        5.329       5.136       4.996       4.893       4.816       4.748       4.706       4.664       4.593       4.547    
        4.500       4.407       4.288       4.153       3.994       3.825       3.567       3.241       2.879       2.467    
        2.090       1.706       1.419       1.132      0.7177      0.4251      0.3031      0.2212      0.1064       0.000    
  22    10.00       9.820       9.634       9.480       9.361       9.231       9.037       8.833       8.662       8.402    
        8.042       7.614       7.269       7.007       6.652       6.303       6.059       5.878       5.695       5.468    
        5.225       5.029       4.847       4.687       4.583       4.534       4.500       4.444       4.421       4.394    
        4.360       4.291       4.205       4.083       3.939       3.777       3.510       3.191       2.765       2.360    
        2.036       1.688       1.371      0.9450      0.5919      0.4264      0.3208      0.2135      8.4855E-02   0.000    
  23    10.00       9.780       9.597       9.470       9.339       9.145       8.927       8.768       8.551       8.281    
        7.916       7.536       7.270       6.938       6.556       6.253       6.047       5.881       5.674       5.401    
        5.142       4.911       4.670       4.384       4.130       4.079       4.152       4.187       4.235       4.253    
        4.240       4.198       4.125       4.029       3.893       3.725       3.479       3.083       2.638       2.306    
        1.996       1.601       1.144      0.7742      0.5782      0.4381      0.3208      0.2037      9.4887E-02   0.000    
  24    10.00       9.749       9.617       9.470       9.284       9.072       8.900       8.727       8.514       8.204    
        7.869       7.573       7.280       6.881       6.478       6.238       6.067       5.895       5.645       5.369    
        5.112       4.847       4.478       3.819       2.827       3.158       3.610       3.896       4.050       4.113    
        4.134       4.110       4.064       3.966       3.835       3.666       3.361       2.945       2.569       2.218    
        1.842       1.422       1.018      0.7404      0.5765      0.4363      0.3139      0.2380      0.1310       0.000    
  25    10.00       9.781       9.642       9.465       9.269       9.079       8.903       8.739       8.479       8.171    
        7.889       7.605       7.247       6.810       6.497       6.278       6.088       5.884       5.651       5.396    
        5.118       4.853       4.180       2.777     -0.4029       2.173       3.147       3.635       3.896       4.016    
        4.053       4.047       4.000       3.887       3.750       3.543       3.228       2.829       2.491       2.111    
        1.677       1.282      0.9515      0.7348      0.6008      0.4700      0.3436      0.2533      0.1654       0.000    
  26    10.00       9.813       9.681       9.491       9.290       9.124       8.941       8.734       8.469       8.229    
        7.986       7.607       7.157       6.786       6.557       6.360       6.132       5.869       5.622       5.402    
        5.188       4.897       4.274       3.255       2.184       2.704       3.267       3.623       3.844       3.973    
        4.009       4.000       3.936       3.827       3.694       3.472       3.061       2.692       2.405       1.941    
        1.468       1.140      0.9449      0.7985      0.6557      0.5103      0.3785      0.2774      0.1656       0.000    
  27    10.00       9.854       9.695       9.533       9.354       9.161       8.981       8.781       8.544       8.314    
        7.990       7.545       7.155       6.852       6.650       6.428       6.131       5.841       5.640       5.465    
        5.285       4.984       4.516       3.952       3.351       3.367       3.565       3.751       3.894       3.973    
        3.992       3.974       3.911       3.799       3.620       3.271       2.883       2.590       2.147       1.687    
        1.345       1.129      0.9858      0.8617      0.7301      0.5623      0.4051      0.3033      0.2038       0.000    
  28    10.00       9.868       9.733       9.579       9.417       9.235       9.049       8.848       8.625       8.360    
        7.964       7.561       7.223       6.932       6.722       6.498       6.243       5.958       5.689       5.515    
        5.353       5.137       4.825       4.400       4.018       3.846       3.856       3.942       3.979       4.007    
        4.000       3.968       3.892       3.731       3.464       3.097       2.761       2.360       1.918       1.609    
        1.356       1.177       1.035      0.9114      0.7759      0.6153      0.4595      0.3453      0.2105       0.000    
  29    10.00       9.874       9.747       9.632       9.476       9.310       9.131       8.930       8.694       8.341    
        7.953       7.601       7.281       7.040       6.799       6.557       6.324       6.095       5.833       5.606    
        5.432       5.249       5.033       4.771       4.424       4.237       4.166       4.135       4.118       4.081    
        4.030       3.958       3.859       3.641       3.314       2.976       2.618       2.208       1.867       1.639    
        1.431       1.233       1.077      0.9565      0.8244      0.6597      0.4989      0.3654      0.2131       0.000    
  30    10.00       9.886       9.780       9.679       9.545       9.393       9.233       9.010       8.717       8.359    
        7.960       7.604       7.336       7.099       6.863       6.627       6.432       6.234       5.998       5.754    
        5.545       5.376       5.188       4.999       4.777       4.575       4.492       4.362       4.288       4.183    
        4.065       3.941       3.788       3.554       3.276       2.948       2.573       2.190       1.935       1.723    
        1.486       1.290       1.140      0.9963      0.8475      0.7014      0.5326      0.3814      0.2305       0.000    
  31    10.00       9.905       9.815       9.721       9.623       9.504       9.331       9.070       8.733       8.362    
        7.978       7.647       7.392       7.151       6.940       6.723       6.517       6.366       6.138       5.903    
        5.702       5.526       5.360       5.188       5.046       4.886       4.727       4.579       4.427       4.276    
        4.097       3.919       3.756       3.557       3.275       2.928       2.566       2.244       2.033       1.842    
        1.596       1.370       1.194       1.041      0.8931      0.7380      0.5682      0.4083      0.2248       0.000    
  32    10.00       9.920       9.852       9.770       9.675       9.568       9.399       9.105       8.791       8.453    
        8.048       7.704       7.452       7.225       7.014       6.831       6.648       6.457       6.272       6.048    
        5.837       5.645       5.484       5.325       5.195       5.081       4.905       4.733       4.538       4.331    
        4.134       3.947       3.760       3.563       3.293       2.976       2.669       2.383       2.158       1.942    
        1.714       1.477       1.288       1.108      0.9378      0.7967      0.6224      0.4103      0.2040       0.000    
  33    10.00       9.932       9.876       9.810       9.719       9.598       9.385       9.103       8.840       8.529    
        8.138       7.797       7.537       7.291       7.096       6.939       6.777       6.586       6.381       6.177    
        5.955       5.750       5.563       5.406       5.300       5.186       5.021       4.815       4.613       4.412    
        4.212       4.031       3.836       3.580       3.322       3.031       2.767       2.536       2.301       2.067    
        1.853       1.627       1.418       1.229       1.038      0.8696      0.6732      0.4220      0.1989       0.000    
  34    10.00       9.939       9.901       9.845       9.734       9.570       9.365       9.157       8.889       8.553    
        8.211       7.881       7.605       7.361       7.184       7.058       6.886       6.696       6.473       6.281    
        6.081       5.841       5.652       5.507       5.399       5.270       5.082       4.896       4.684       4.465    
        4.296       4.127       3.952       3.697       3.424       3.153       2.909       2.702       2.458       2.220    
        2.013       1.804       1.582       1.388       1.184      0.9848      0.7329      0.4713      0.2485       0.000    
  35    10.00       9.950       9.907       9.836       9.701       9.529       9.381       9.205       8.960       8.602    
        8.240       7.937       7.661       7.449       7.295       7.153       6.978       6.769       6.556       6.343    
        6.162       5.951       5.759       5.622       5.505       5.378       5.173       4.946       4.723       4.515    
        4.385       4.229       4.038       3.843       3.604       3.312       3.061       2.890       2.640       2.367    
        2.170       1.960       1.748       1.557       1.327       1.105      0.8493      0.5671      0.2834       0.000    
  36    10.00       9.947       9.888       9.809       9.675       9.513       9.380       9.219       8.976       8.645    
        8.270       7.946       7.738       7.564       7.419       7.247       7.038       6.837       6.614       6.360    
        6.169       6.003       5.837       5.718       5.602       5.450       5.238       5.001       4.774       4.575    
        4.442       4.311       4.128       3.941       3.734       3.467       3.210       3.017       2.796       2.499    
        2.276       2.064       1.848       1.689       1.467       1.219      0.9630      0.6673      0.3395       0.000    
  37    10.00       9.932       9.867       9.782       9.647       9.500       9.352       9.198       8.977       8.624    
        8.248       7.979       7.847       7.684       7.494       7.325       7.092       6.852       6.590       6.340    
        6.183       6.051       5.896       5.775       5.642       5.467       5.270       5.031       4.824       4.664    
        4.517       4.368       4.180       4.012       3.796       3.540       3.335       3.145       2.897       2.603    
        2.336       2.128       1.953       1.775       1.564       1.332       1.086      0.7545      0.4089       0.000    
  38    10.00       9.925       9.842       9.752       9.629       9.486       9.324       9.163       8.932       8.607    
        8.319       8.100       7.931       7.785       7.577       7.325       7.067       6.790       6.513       6.345    
        6.221       6.066       5.924       5.817       5.679       5.481       5.246       5.028       4.897       4.762    
        4.600       4.430       4.244       4.071       3.859       3.619       3.432       3.239       2.945       2.635    
        2.402       2.208       2.030       1.851       1.663       1.438       1.184      0.8642      0.4485       0.000    
  39    10.00       9.906       9.823       9.734       9.614       9.455       9.282       9.114       8.905       8.643    
        8.418       8.254       8.066       7.862       7.574       7.255       6.943       6.651       6.479       6.365    
        6.208       6.045       5.942       5.843       5.716       5.491       5.249       5.090       4.970       4.831    
        4.659       4.493       4.304       4.116       3.934       3.732       3.515       3.291       2.985       2.679    
        2.434       2.238       2.099       1.956       1.751       1.521       1.264      0.9165      0.4490       0.000    
  40    10.00       9.891       9.810       9.722       9.601       9.437       9.260       9.091       8.912       8.696    
        8.510       8.371       8.147       7.833       7.475       7.122       6.806       6.601       6.482       6.353    
        6.183       6.041       5.945       5.835       5.688       5.508       5.336       5.171       5.027       4.898    
        4.739       4.551       4.356       4.178       4.006       3.801       3.567       3.340       3.008       2.672    
        2.449       2.285       2.140       2.017       1.809       1.554       1.318      0.9527      0.4705       0.000    
  41    10.00       9.900       9.806       9.708       9.576       9.428       9.273       9.122       8.951       8.758    
        8.583       8.418       8.127       7.736       7.342       7.021       6.769       6.591       6.470       6.327    
        6.157       6.034       5.932       5.815       5.683       5.548       5.417       5.259       5.087       4.938    
        4.794       4.613       4.414       4.250       4.069       3.868       3.628       3.311       2.942       2.683    
        2.501       2.330       2.196       2.040       1.821       1.568       1.359       1.011      0.5180       0.000    
  42    10.00       9.903       9.799       9.710       9.595       9.457       9.303       9.136       8.984       8.837    
        8.632       8.346       7.984       7.582       7.228       6.979       6.760       6.591       6.453       6.283    
        6.126       6.013       5.911       5.824       5.708       5.606       5.484       5.305       5.122       4.987    
        4.857       4.661       4.447       4.292       4.137       3.911       3.604       3.224       2.895       2.696    
        2.551       2.405       2.239       2.036       1.809       1.605       1.393       1.053      0.5421       0.000    
  43    10.00       9.905       9.810       9.719       9.628       9.506       9.353       9.188       9.025       8.819    
        8.534       8.207       7.838       7.450       7.174       6.964       6.757       6.583       6.418       6.250    
        6.102       5.996       5.918       5.849       5.746       5.634       5.516       5.342       5.178       5.065    
        4.901       4.684       4.482       4.329       4.151       3.875       3.514       3.147       2.917       2.760    
        2.605       2.448       2.245       2.026       1.818       1.621       1.431       1.050      0.4732       0.000    
  44    10.00       9.899       9.813       9.734       9.634       9.542       9.413       9.215       8.998       8.718    
        8.431       8.087       7.683       7.401       7.185       6.954       6.729       6.534       6.355       6.205    
        6.098       6.012       5.936       5.865       5.776       5.662       5.524       5.386       5.257       5.115    
        4.957       4.762       4.533       4.316       4.108       3.826       3.449       3.131       2.946       2.794    
        2.646       2.472       2.268       2.073       1.855       1.636       1.388      0.8996      0.3976       0.000    
  45    10.00       9.899       9.828       9.738       9.645       9.562       9.377       9.154       8.901       8.626    
        8.384       7.973       7.596       7.385       7.167       6.916       6.664       6.465       6.307       6.197    
        6.119       6.042       5.962       5.876       5.781       5.678       5.562       5.444       5.338       5.193    
        5.003       4.794       4.563       4.301       4.063       3.757       3.403       3.151       2.999       2.846    
        2.654       2.453       2.275       2.098       1.908       1.672       1.253      0.7545      0.3822       0.000    
  46    10.00       9.917       9.841       9.746       9.643       9.489       9.295       9.111       8.880       8.610    
        8.263       7.886       7.583       7.319       7.097       6.850       6.599       6.443       6.323       6.221    
        6.149       6.078       5.985       5.881       5.788       5.695       5.600       5.495       5.390       5.256    
        5.080       4.862       4.605       4.309       3.978       3.649       3.389       3.217       3.048       2.872    
        2.650       2.440       2.263       2.121       1.917       1.587       1.124      0.7110      0.3613       0.000    
  47    10.00       9.935       9.865       9.766       9.590       9.403       9.238       9.081       8.875       8.538    
        8.164       7.814       7.522       7.301       7.062       6.789       6.573       6.433       6.339       6.254    
        6.177       6.095       6.003       5.902       5.808       5.728       5.643       5.539       5.418       5.286    
        5.130       4.937       4.606       4.214       3.903       3.659       3.432       3.285       3.129       2.885    
        2.621       2.400       2.234       2.119       1.862       1.469       1.044      0.6845      0.3514       0.000    
  48    10.00       9.943       9.870       9.721       9.543       9.389       9.212       9.053       8.834       8.480    
        8.073       7.755       7.519       7.255       6.977       6.733       6.569       6.433       6.342       6.280    
        6.203       6.104       6.003       5.915       5.840       5.771       5.690       5.575       5.432       5.279    
        5.118       4.897       4.555       4.234       3.960       3.717       3.505       3.338       3.138       2.845    
        2.566       2.388       2.249       2.032       1.690       1.338      0.9970      0.6897      0.3711       0.000    
  49    10.00       9.941       9.835       9.702       9.557       9.378       9.200       9.022       8.750       8.376    
        8.025       7.728       7.443       7.193       6.979       6.748       6.538       6.415       6.354       6.294    
        6.222       6.110       5.998       5.925       5.863       5.809       5.718       5.579       5.418       5.271    
        5.103       4.833       4.543       4.327       4.077       3.793       3.536       3.334       3.103       2.791    
        2.565       2.409       2.202       1.875       1.570       1.283      0.9860      0.6898      0.3700       0.000    
  50    10.00       9.933       9.823       9.688       9.556       9.389       9.190       8.968       8.682       8.386    
        8.019       7.647       7.383       7.183       7.003       6.742       6.509       6.417       6.363       6.303    
        6.231       6.116       6.001       5.929       5.877       5.827       5.725       5.566       5.402       5.263    
        5.090       4.812       4.587       4.394       4.132       3.850       3.582       3.306       2.989       2.727    
        2.610       2.434       2.115       1.786       1.559       1.280      0.9999      0.6758      0.3013       0.000    

 HEAD WILL BE SAVED ON UNIT   51 AT END OF TIME STEP  85, STRESS PERIOD    2

 DRAWDOWN WILL BE SAVED ON UNIT   52 AT END OF TIME STEP  85, STRESS PERIOD    2
1
  VOLUMETRIC BUDGET FOR ENTIRE MODEL AT END OF TIME STEP 85 IN STRESS PERIOD   2
  ------------------------------------------------------------------------------

     CUMULATIVE VOLUMES      L**3       RATES FOR THIS TIME STEP      L**3/T
     ------------------                 ------------------------

           IN:                                      IN:
           ---                                      ---
             STORAGE =       39480.3047               STORAGE =         391.5628
       CONSTANT HEAD =       53860.5586         CONSTANT HEAD =         683.0591
               WELLS =           0.0000                 WELLS =           0.0000

            TOTAL IN =       93340.8594              TOTAL IN =        1074.6219

          OUT:                                     OUT:
          ----                                     ----
             STORAGE =       9.4320E-03               STORAGE =           0.0000
       CONSTANT HEAD =       50840.8516         CONSTANT HEAD =         574.6220
               WELLS =       42500.0000                 WELLS =         500.0000

           TOTAL OUT =       93340.8594             TOTAL OUT =        1074.6221

            IN - OUT =           0.0000              IN - OUT =      -1.2207E-04

 PERCENT DISCREPANCY =           0.00     PERCENT DISCREPANCY =           0.00






          TIME SUMMARY AT END OF TIME STEP  85 IN STRESS PERIOD    2
                    SECONDS     MINUTES      HOURS       DAYS        YEARS
                    -----------------------------------------------------------
   TIME STEP LENGTH  86400.      1440.0      24.000      1.0000     2.73785E-03
 STRESS PERIOD TIME 7.34400E+06 1.22400E+05  2040.0      85.000     0.23272    
         TOTAL TIME 7.43040E+06 1.23840E+05  2064.0      86.000     0.23546    
1
 
 SOLVING FOR HEAD 

 OUTPUT CONTROL FOR STRESS PERIOD    2   TIME STEP  86
    SAVE HEAD FOR ALL LAYERS
    SAVE DRAWDOWN FOR ALL LAYERS
    SAVE BUDGET
    PRINT HEAD FOR ALL LAYERS
    PRINT BUDGET
 UBDSV1 SAVING "         STORAGE" ON UNIT  53 AT TIME STEP 86, STRESS PERIOD   2
 UBDSV2 SAVING "   CONSTANT HEAD" ON UNIT  53 AT TIME STEP 86, STRESS PERIOD   2
 UBDSV1 SAVING "FLOW RIGHT FACE " ON UNIT  53 AT TIME STEP 86, STRESS PERIOD   2
 UBDSV1 SAVING "FLOW FRONT FACE " ON UNIT  53 AT TIME STEP 86, STRESS PERIOD   2
1
              HEAD IN LAYER   1 AT END OF TIME STEP  86 IN STRESS PERIOD    2
  ---------------------------------------------------------------------------

            1           2           3           4           5           6           7           8           9          10
           11          12          13          14          15          16          17          18          19          20
           21          22          23          24          25          26          27          28          29          30
           31          32          33          34          35          36          37          38          39          40
           41          42          43          44          45          46          47          48          49          50
 ........................................................................................................................
   1    10.00       9.953       9.887       9.811       9.738       9.655       9.576       9.498       9.400       9.304    
        9.230       9.157       9.083       9.011       8.895       8.755       8.599       8.476       8.413       8.340    
        8.253       8.184       8.118       8.041       7.940       7.741       7.517       7.362       7.210       7.069    
        6.885       6.592       6.216       5.800       5.369       4.911       4.459       4.083       3.593       3.059    
        2.622       2.205       1.742       1.356       1.118      0.9164      0.7572      0.6419      0.4309       0.000    
   2    10.00       9.952       9.892       9.816       9.741       9.668       9.590       9.487       9.380       9.301    
        9.237       9.175       9.112       9.023       8.890       8.743       8.597       8.475       8.410       8.329    
        8.241       8.190       8.136       8.056       7.926       7.732       7.528       7.368       7.216       7.078    
        6.873       6.565       6.171       5.696       5.237       4.794       4.402       4.039       3.540       3.024    
        2.586       2.118       1.696       1.393       1.170      0.9974      0.8002      0.6248      0.3486       0.000    
   3    10.00       9.946       9.886       9.818       9.753       9.678       9.577       9.469       9.393       9.322    
        9.251       9.194       9.139       9.053       8.916       8.735       8.575       8.477       8.401       8.318    
        8.247       8.193       8.137       8.029       7.888       7.714       7.537       7.411       7.233       7.053    
        6.795       6.428       5.976       5.515       5.109       4.699       4.316       3.925       3.406       2.929    
        2.555       2.125       1.741       1.465       1.244       1.066      0.8323      0.5582      0.2531       0.000    
   4    10.00       9.946       9.887       9.821       9.747       9.660       9.556       9.474       9.408       9.335    
        9.272       9.225       9.163       9.066       8.933       8.740       8.573       8.481       8.396       8.321    
        8.245       8.177       8.105       7.992       7.852       7.695       7.534       7.378       7.219       7.015    
        6.688       6.201       5.718       5.369       5.035       4.613       4.154       3.695       3.281       2.924    
        2.575       2.179       1.819       1.571       1.323       1.097      0.8082      0.5018      0.2404       0.000    
   5    10.00       9.942       9.883       9.808       9.733       9.652       9.559       9.487       9.420       9.352    
        9.297       9.250       9.170       9.055       8.908       8.732       8.590       8.490       8.405       8.304    
        8.212       8.138       8.050       7.940       7.815       7.653       7.493       7.348       7.190       6.937    
        6.464       5.914       5.528       5.256       4.926       4.472       3.998       3.584       3.278       2.957    
        2.617       2.254       1.901       1.671       1.406       1.079      0.7353      0.4472      0.2249       0.000    
   6    10.00       9.934       9.863       9.801       9.733       9.645       9.566       9.505       9.433       9.369    
        9.317       9.261       9.158       9.029       8.900       8.752       8.610       8.493       8.380       8.262    
        8.170       8.083       8.006       7.906       7.746       7.586       7.458       7.310       7.087       6.701    
        6.176       5.676       5.356       5.123       4.824       4.375       3.908       3.564       3.307       3.018    
        2.711       2.395       2.035       1.728       1.376       1.017      0.6488      0.3855      0.2123       0.000    
   7    10.00       9.921       9.852       9.795       9.724       9.650       9.580       9.522       9.456       9.393    
        9.329       9.243       9.131       9.009       8.886       8.770       8.620       8.459       8.329       8.214    
        8.116       8.032       7.967       7.839       7.675       7.541       7.409       7.208       6.843       6.345    
        5.847       5.445       5.231       5.025       4.678       4.256       3.944       3.616       3.339       3.153    
        2.865       2.528       2.105       1.667       1.275      0.8820      0.5582      0.3879      0.1997       0.000    
   8    10.00       9.920       9.858       9.793       9.721       9.656       9.595       9.536       9.475       9.414    
        9.329       9.220       9.109       8.993       8.879       8.748       8.558       8.389       8.283       8.172    
        8.063       7.992       7.892       7.754       7.610       7.470       7.245       6.930       6.465       6.029    
        5.660       5.356       5.163       4.928       4.556       4.210       3.930       3.689       3.479       3.268    
        2.988       2.565       2.047       1.580       1.172      0.8245      0.5902      0.3796      0.1820       0.000    
   9    10.00       9.933       9.857       9.785       9.733       9.678       9.616       9.554       9.486       9.421    
        9.322       9.197       9.075       8.959       8.838       8.682       8.498       8.342       8.227       8.114    
        8.017       7.924       7.789       7.656       7.521       7.346       7.018       6.595       6.159       5.843    
        5.541       5.295       5.084       4.791       4.449       4.162       3.951       3.777       3.590       3.360    
        3.024       2.563       2.036       1.574       1.178      0.8417      0.5949      0.3826      0.1957       0.000    
  10    10.00       9.930       9.850       9.792       9.742       9.690       9.634       9.580       9.501       9.404    
        9.283       9.152       9.035       8.926       8.800       8.608       8.414       8.279       8.174       8.067    
        7.977       7.847       7.697       7.547       7.388       7.130       6.706       6.269       5.902       5.649    
        5.457       5.252       4.994       4.699       4.385       4.148       3.992       3.842       3.640       3.375    
        2.990       2.514       2.034       1.641       1.272      0.9247      0.6129      0.4060      0.2183       0.000    
  11    10.00       9.915       9.850       9.802       9.753       9.708       9.657       9.580       9.472       9.362    
        9.242       9.112       9.005       8.872       8.699       8.516       8.356       8.237       8.141       8.033    
        7.896       7.729       7.524       7.353       7.083       6.720       6.361       6.042       5.739       5.555    
        5.408       5.142       4.864       4.621       4.383       4.207       4.046       3.855       3.605       3.284    
        2.924       2.557       2.100       1.715       1.365       1.021      0.6876      0.3984      0.1671       0.000    
  12    10.00       9.917       9.858       9.806       9.765       9.718       9.658       9.551       9.425       9.319    
        9.207       9.071       8.940       8.781       8.630       8.460       8.306       8.204       8.096       7.946    
        7.715       7.465       7.222       6.981       6.620       6.347       6.148       5.836       5.589       5.455    
        5.289       5.040       4.814       4.592       4.426       4.257       4.057       3.823       3.521       3.201    
        2.898       2.569       2.129       1.751       1.424       1.065      0.7221      0.3751      0.1245       0.000    
  13    10.00       9.933       9.876       9.822       9.772       9.716       9.620       9.496       9.377       9.270    
        9.142       9.010       8.872       8.707       8.540       8.381       8.269       8.140       7.997       7.695    
        7.345       7.080       6.813       6.491       6.216       6.089       5.864       5.591       5.460       5.338    
        5.143       4.933       4.756       4.596       4.455       4.298       4.060       3.747       3.459       3.160    
        2.874       2.535       2.064       1.714       1.433       1.053      0.6620      0.3228      9.8828E-02   0.000    
  14    10.00       9.948       9.899       9.841       9.772       9.679       9.554       9.429       9.322       9.202    
        9.071       8.948       8.791       8.617       8.468       8.331       8.159       7.989       7.702       7.253    
        6.918       6.663       6.308       6.059       5.934       5.819       5.598       5.432       5.303       5.176    
        5.009       4.863       4.741       4.606       4.456       4.304       4.034       3.696       3.401       3.095    
        2.805       2.384       1.938       1.665       1.347       1.005      0.6605      0.2979      8.4850E-02   0.000    
  15    10.00       9.958       9.907       9.842       9.759       9.622       9.470       9.360       9.260       9.141    
        9.039       8.910       8.709       8.511       8.373       8.156       7.937       7.759       7.317       6.829    
        6.529       6.189       5.893       5.802       5.739       5.594       5.407       5.252       5.154       5.058    
        4.934       4.830       4.732       4.614       4.469       4.284       3.970       3.596       3.289       3.013    
        2.704       2.283       1.935       1.595       1.217      0.9175      0.5886      0.2723      9.2127E-02   0.000    
  16    10.00       9.966       9.910       9.829       9.707       9.543       9.407       9.320       9.231       9.111    
        8.988       8.796       8.544       8.352       8.154       7.903       7.757       7.394       6.776       6.353    
        6.092       5.804       5.702       5.651       5.532       5.344       5.199       5.125       5.082       5.001    
        4.898       4.805       4.722       4.602       4.426       4.174       3.816       3.499       3.261       2.976    
        2.619       2.207       1.834       1.465       1.142      0.8106      0.5267      0.2743      9.7932E-02   0.000    
  17    10.00       9.960       9.893       9.784       9.645       9.475       9.355       9.279       9.171       9.044    
        8.821       8.553       8.341       8.146       7.890       7.640       7.333       6.756       6.247       5.987    
        5.785       5.637       5.566       5.443       5.257       5.125       5.085       5.065       5.023       4.942    
        4.853       4.773       4.685       4.563       4.305       3.979       3.705       3.505       3.278       2.935    
        2.486       2.086       1.740       1.396       1.022      0.6748      0.4480      0.2485      0.1035       0.000    
  18    10.00       9.943       9.856       9.730       9.546       9.403       9.318       9.203       9.072       8.880    
        8.595       8.373       8.175       7.877       7.543       7.200       6.772       6.275       5.968       5.772    
        5.620       5.492       5.378       5.211       5.085       5.046       5.030       5.009       4.952       4.875    
        4.802       4.720       4.609       4.418       4.155       3.896       3.689       3.526       3.241       2.819    
        2.389       1.973       1.627       1.304      0.9459      0.6213      0.3782      0.2074      9.6828E-02   0.000    
  19    10.00       9.924       9.823       9.638       9.455       9.371       9.263       9.114       8.954       8.735    
        8.483       8.263       7.945       7.520       7.174       6.840       6.384       5.985       5.793       5.666    
        5.507       5.344       5.214       5.076       5.010       4.992       4.970       4.927       4.857       4.790    
        4.719       4.629       4.483       4.293       4.085       3.870       3.696       3.488       3.082       2.668    
        2.329       1.906       1.532       1.219      0.8676      0.5591      0.3399      0.1967      9.8488E-02   0.000    
  20    10.00       9.901       9.747       9.554       9.419       9.323       9.203       9.042       8.852       8.649    
        8.386       8.058       7.627       7.239       6.935       6.538       6.127       5.926       5.764       5.591    
        5.418       5.248       5.089       4.988       4.943       4.906       4.855       4.809       4.741       4.681    
        4.611       4.523       4.378       4.218       4.035       3.857       3.673       3.349       2.927       2.579    
        2.204       1.794       1.463       1.150      0.8241      0.5021      0.2952      0.1984      0.1002       0.000    
  21    10.00       9.843       9.684       9.526       9.385       9.277       9.144       8.939       8.746       8.549    
        8.206       7.794       7.392       7.075       6.750       6.371       6.080       5.904       5.719       5.530    
        5.319       5.126       4.986       4.883       4.806       4.737       4.695       4.654       4.582       4.536    
        4.490       4.397       4.279       4.144       3.985       3.817       3.559       3.234       2.873       2.462    
        2.086       1.702       1.417       1.130      0.7163      0.4243      0.3025      0.2208      0.1062       0.000    
  22    10.00       9.820       9.632       9.479       9.358       9.228       9.033       8.829       8.657       8.396    
        8.036       7.607       7.261       6.999       6.643       6.294       6.049       5.869       5.685       5.457    
        5.215       5.019       4.837       4.676       4.573       4.523       4.490       4.433       4.410       4.383    
        4.349       4.281       4.194       4.073       3.930       3.768       3.502       3.183       2.759       2.355    
        2.032       1.685       1.368      0.9432      0.5908      0.4257      0.3203      0.2131      8.4709E-02   0.000    
  23    10.00       9.779       9.596       9.468       9.336       9.142       8.923       8.763       8.546       8.275    
        7.909       7.528       7.262       6.930       6.547       6.244       6.037       5.871       5.664       5.391    
        5.132       4.901       4.660       4.373       4.119       4.068       4.141       4.176       4.225       4.242    
        4.229       4.187       4.115       4.019       3.883       3.716       3.471       3.075       2.632       2.301    
        1.992       1.597       1.142      0.7728      0.5772      0.4373      0.3202      0.2034      9.4729E-02   0.000    
  24    10.00       9.748       9.615       9.468       9.282       9.069       8.896       8.722       8.509       8.198    
        7.862       7.566       7.272       6.873       6.469       6.229       6.058       5.885       5.635       5.359    
        5.102       4.837       4.467       3.808       2.816       3.146       3.599       3.885       4.038       4.102    
        4.123       4.100       4.053       3.956       3.825       3.657       3.353       2.938       2.564       2.213    
        1.838       1.420       1.016      0.7391      0.5755      0.4356      0.3134      0.2376      0.1308       0.000    
  25    10.00       9.780       9.640       9.463       9.267       9.076       8.899       8.735       8.474       8.165    
        7.883       7.598       7.239       6.802       6.488       6.269       6.078       5.875       5.641       5.385    
        5.107       4.843       4.169       2.766     -0.4151       2.161       3.135       3.624       3.885       4.005    
        4.043       4.036       3.989       3.877       3.740       3.534       3.220       2.823       2.485       2.106    
        1.674       1.280      0.9498      0.7336      0.5999      0.4692      0.3430      0.2529      0.1651       0.000    
  26    10.00       9.812       9.680       9.489       9.287       9.120       8.938       8.730       8.464       8.223    
        7.980       7.600       7.149       6.777       6.548       6.350       6.123       5.859       5.612       5.392    
        5.178       4.886       4.263       3.243       2.172       2.692       3.255       3.611       3.832       3.962    
        3.998       3.989       3.926       3.817       3.685       3.463       3.053       2.686       2.400       1.937    
        1.466       1.138      0.9434      0.7972      0.6546      0.5095      0.3780      0.2769      0.1654       0.000    
  27    10.00       9.854       9.694       9.531       9.351       9.159       8.978       8.777       8.539       8.309    
        7.983       7.538       7.147       6.844       6.642       6.419       6.121       5.831       5.630       5.454    
        5.274       4.973       4.505       3.941       3.339       3.356       3.554       3.740       3.883       3.962    
        3.981       3.963       3.901       3.789       3.611       3.263       2.876       2.585       2.143       1.684    
        1.343       1.127      0.9843      0.8604      0.7290      0.5614      0.4045      0.3028      0.2035       0.000    
  28    10.00       9.867       9.732       9.577       9.415       9.233       9.046       8.844       8.620       8.355    
        7.958       7.554       7.215       6.923       6.713       6.489       6.234       5.948       5.679       5.505    
        5.343       5.127       4.814       4.389       4.007       3.835       3.845       3.931       3.968       3.996    
        3.990       3.957       3.882       3.722       3.456       3.090       2.756       2.355       1.915       1.606    
        1.354       1.175       1.033      0.9100      0.7748      0.6144      0.4588      0.3448      0.2102       0.000    
  29    10.00       9.874       9.746       9.630       9.474       9.308       9.129       8.926       8.690       8.336    
        7.947       7.595       7.273       7.032       6.790       6.548       6.314       6.086       5.823       5.596    
        5.422       5.239       5.023       4.761       4.413       4.226       4.155       4.124       4.107       4.070    
        4.020       3.948       3.850       3.632       3.307       2.970       2.613       2.204       1.864       1.636    
        1.429       1.231       1.075      0.9551      0.8233      0.6588      0.4982      0.3649      0.2128       0.000    
  30    10.00       9.885       9.780       9.678       9.543       9.391       9.231       9.007       8.713       8.354    
        7.954       7.597       7.328       7.091       6.854       6.619       6.423       6.225       5.988       5.744    
        5.535       5.366       5.178       4.989       4.766       4.564       4.481       4.351       4.277       4.173    
        4.055       3.932       3.780       3.547       3.270       2.942       2.569       2.186       1.932       1.720    
        1.484       1.288       1.139      0.9949      0.8463      0.7004      0.5319      0.3809      0.2302       0.000    
  31    10.00       9.905       9.814       9.720       9.622       9.502       9.329       9.067       8.730       8.357    
        7.972       7.640       7.385       7.143       6.932       6.715       6.508       6.357       6.129       5.893    
        5.692       5.516       5.350       5.178       5.036       4.875       4.716       4.569       4.417       4.266    
        4.089       3.911       3.749       3.551       3.270       2.923       2.562       2.240       2.030       1.840    
        1.594       1.368       1.192       1.040      0.8919      0.7370      0.5674      0.4078      0.2245       0.000    
  32    10.00       9.920       9.851       9.769       9.674       9.567       9.397       9.103       8.788       8.449    
        8.043       7.698       7.445       7.217       7.006       6.823       6.640       6.448       6.263       6.039    
        5.827       5.636       5.475       5.316       5.185       5.072       4.895       4.724       4.529       4.322    
        4.126       3.940       3.753       3.557       3.288       2.971       2.665       2.380       2.155       1.940    
        1.712       1.475       1.286       1.107      0.9367      0.7957      0.6217      0.4098      0.2037       0.000    
  33    10.00       9.932       9.875       9.810       9.718       9.597       9.383       9.100       8.837       8.525    
        8.132       7.791       7.530       7.284       7.089       6.931       6.769       6.578       6.372       6.168    
        5.946       5.741       5.553       5.397       5.290       5.177       5.012       4.806       4.605       4.404    
        4.205       4.025       3.830       3.575       3.317       3.027       2.763       2.533       2.299       2.064    
        1.851       1.625       1.416       1.228       1.037      0.8686      0.6725      0.4215      0.1986       0.000    
  34    10.00       9.939       9.901       9.844       9.733       9.569       9.363       9.155       8.886       8.549    
        8.206       7.875       7.598       7.355       7.177       7.051       6.879       6.688       6.465       6.273    
        6.072       5.832       5.643       5.498       5.390       5.261       5.073       4.888       4.677       4.458    
        4.291       4.121       3.947       3.693       3.419       3.149       2.906       2.699       2.456       2.218    
        2.011       1.802       1.580       1.387       1.183      0.9839      0.7323      0.4709      0.2483       0.000    
  35    10.00       9.950       9.907       9.836       9.700       9.528       9.379       9.202       8.958       8.598    
        8.235       7.932       7.656       7.443       7.288       7.147       6.970       6.761       6.548       6.335    
        6.154       5.943       5.751       5.614       5.497       5.370       5.165       4.939       4.717       4.509    
        4.380       4.224       4.033       3.839       3.600       3.309       3.058       2.887       2.637       2.365    
        2.168       1.958       1.747       1.556       1.326       1.104      0.8487      0.5667      0.2832       0.000    
  36    10.00       9.947       9.888       9.808       9.674       9.512       9.378       9.217       8.973       8.642    
        8.266       7.941       7.732       7.558       7.413       7.241       7.031       6.830       6.607       6.353    
        6.162       5.996       5.829       5.710       5.595       5.443       5.231       4.995       4.769       4.570    
        4.437       4.306       4.124       3.937       3.731       3.464       3.207       3.014       2.793       2.497    
        2.274       2.063       1.847       1.688       1.466       1.218      0.9624      0.6669      0.3393       0.000    
  37    10.00       9.932       9.867       9.781       9.647       9.499       9.351       9.196       8.975       8.621    
        8.244       7.975       7.842       7.678       7.488       7.319       7.085       6.845       6.583       6.334    
        6.177       6.045       5.889       5.768       5.635       5.461       5.265       5.026       4.820       4.660    
        4.513       4.364       4.176       4.009       3.793       3.537       3.332       3.143       2.895       2.601    
        2.334       2.126       1.952       1.774       1.563       1.332       1.086      0.7541      0.4086       0.000    
  38    10.00       9.925       9.842       9.751       9.628       9.485       9.323       9.162       8.930       8.604    
        8.315       8.096       7.926       7.780       7.572       7.319       7.061       6.784       6.507       6.339    
        6.215       6.060       5.919       5.811       5.674       5.476       5.242       5.024       4.893       4.758    
        4.596       4.426       4.241       4.068       3.856       3.616       3.429       3.237       2.942       2.634    
        2.401       2.206       2.029       1.850       1.662       1.438       1.183      0.8637      0.4482       0.000    
  39    10.00       9.906       9.822       9.733       9.613       9.454       9.281       9.113       8.903       8.640    
        8.415       8.251       8.062       7.858       7.569       7.250       6.938       6.646       6.474       6.360    
        6.203       6.041       5.937       5.838       5.712       5.487       5.245       5.086       4.966       4.827    
        4.656       4.490       4.300       4.113       3.931       3.729       3.513       3.288       2.984       2.677    
        2.432       2.236       2.098       1.955       1.750       1.520       1.264      0.9160      0.4487       0.000    
  40    10.00       9.891       9.810       9.721       9.601       9.436       9.259       9.089       8.910       8.693    
        8.507       8.368       8.143       7.829       7.471       7.118       6.802       6.597       6.477       6.349    
        6.179       6.036       5.940       5.830       5.684       5.505       5.332       5.168       5.023       4.894    
        4.736       4.548       4.354       4.175       4.003       3.799       3.565       3.338       3.006       2.670    
        2.448       2.284       2.139       2.016       1.808       1.553       1.317      0.9523      0.4703       0.000    
  41    10.00       9.899       9.805       9.708       9.575       9.427       9.272       9.120       8.950       8.756    
        8.580       8.416       8.124       7.732       7.338       7.018       6.765       6.587       6.466       6.323    
        6.153       6.030       5.929       5.811       5.679       5.544       5.414       5.256       5.084       4.935    
        4.791       4.610       4.412       4.247       4.066       3.865       3.626       3.309       2.941       2.682    
        2.500       2.329       2.195       2.039       1.820       1.567       1.358       1.011      0.5178       0.000    
  42    10.00       9.903       9.799       9.709       9.594       9.456       9.302       9.134       8.982       8.835    
        8.629       8.343       7.981       7.579       7.225       6.976       6.756       6.588       6.449       6.279    
        6.122       6.009       5.908       5.821       5.705       5.603       5.481       5.302       5.119       4.984    
        4.854       4.658       4.444       4.289       4.134       3.908       3.602       3.222       2.893       2.695    
        2.549       2.404       2.237       2.035       1.808       1.604       1.393       1.053      0.5418       0.000    
  43    10.00       9.905       9.810       9.718       9.627       9.505       9.352       9.187       9.024       8.818    
        8.532       8.205       7.835       7.448       7.171       6.961       6.754       6.580       6.414       6.246    
        6.098       5.993       5.915       5.846       5.743       5.631       5.514       5.340       5.175       5.062    
        4.898       4.682       4.480       4.326       4.148       3.873       3.512       3.145       2.916       2.759    
        2.604       2.447       2.244       2.025       1.817       1.620       1.431       1.050      0.4730       0.000    
  44    10.00       9.899       9.812       9.733       9.634       9.541       9.412       9.214       8.997       8.717    
        8.429       8.085       7.681       7.398       7.182       6.952       6.727       6.531       6.352       6.202    
        6.095       6.009       5.933       5.862       5.773       5.660       5.521       5.383       5.255       5.112    
        4.955       4.759       4.530       4.314       4.105       3.824       3.447       3.129       2.945       2.793    
        2.644       2.470       2.267       2.072       1.855       1.635       1.388      0.8992      0.3975       0.000    
  45    10.00       9.899       9.828       9.738       9.644       9.561       9.376       9.153       8.900       8.624    
        8.382       7.972       7.594       7.383       7.164       6.914       6.662       6.462       6.304       6.194    
        6.116       6.039       5.960       5.873       5.778       5.675       5.559       5.441       5.336       5.190    
        5.001       4.792       4.560       4.298       4.061       3.755       3.401       3.150       2.998       2.845    
        2.653       2.452       2.274       2.097       1.907       1.671       1.252      0.7541      0.3820       0.000    
  46    10.00       9.917       9.841       9.745       9.643       9.488       9.294       9.110       8.879       8.609    
        8.262       7.884       7.581       7.317       7.095       6.848       6.597       6.440       6.321       6.219    
        6.146       6.075       5.982       5.879       5.785       5.692       5.597       5.492       5.387       5.254    
        5.078       4.859       4.602       4.307       3.976       3.647       3.388       3.216       3.046       2.870    
        2.649       2.439       2.262       2.120       1.916       1.587       1.123      0.7107      0.3611       0.000    
  47    10.00       9.935       9.865       9.766       9.589       9.403       9.237       9.080       8.874       8.537    
        8.163       7.812       7.520       7.299       7.060       6.787       6.570       6.431       6.336       6.252    
        6.175       6.092       6.000       5.899       5.805       5.725       5.640       5.536       5.415       5.283    
        5.128       4.934       4.604       4.212       3.901       3.657       3.431       3.283       3.128       2.883    
        2.619       2.399       2.233       2.118       1.862       1.468       1.043      0.6843      0.3512       0.000    
  48    10.00       9.943       9.869       9.721       9.543       9.388       9.211       9.053       8.833       8.479    
        8.071       7.753       7.517       7.253       6.975       6.730       6.567       6.431       6.340       6.278    
        6.200       6.101       6.000       5.912       5.837       5.768       5.687       5.572       5.429       5.276    
        5.116       4.895       4.553       4.232       3.958       3.716       3.504       3.337       3.136       2.844    
        2.565       2.387       2.248       2.031       1.689       1.337      0.9966      0.6894      0.3709       0.000    
  49    10.00       9.940       9.835       9.702       9.557       9.377       9.199       9.021       8.749       8.375    
        8.023       7.726       7.441       7.191       6.977       6.746       6.535       6.412       6.352       6.292    
        6.220       6.108       5.995       5.922       5.860       5.806       5.715       5.577       5.415       5.269    
        5.100       4.830       4.541       4.325       4.075       3.791       3.535       3.333       3.102       2.789    
        2.563       2.408       2.201       1.874       1.570       1.282      0.9856      0.6896      0.3698       0.000    
  50    10.00       9.933       9.823       9.687       9.556       9.388       9.189       8.967       8.681       8.385    
        8.018       7.645       7.381       7.181       7.000       6.740       6.506       6.414       6.360       6.300    
        6.228       6.113       5.998       5.927       5.874       5.824       5.722       5.563       5.400       5.260    
        5.088       4.809       4.585       4.392       4.130       3.849       3.581       3.304       2.988       2.725    
        2.609       2.433       2.114       1.786       1.558       1.280      0.9995      0.6755      0.3012       0.000    

 HEAD WILL BE SAVED ON UNIT   51 AT END OF TIME STEP  86, STRESS PERIOD    2

 DRAWDOWN WILL BE SAVED ON UNIT   52 AT END OF TIME STEP  86, STRESS PERIOD    2
1
  VOLUMETRIC BUDGET FOR ENTIRE MODEL AT END OF TIME STEP 86 IN STRESS PERIOD   2
  ------------------------------------------------------------------------------

     CUMULATIVE VOLUMES      L**3       RATES FOR THIS TIME STEP      L**3/T
     ------------------                 ------------------------

           IN:                                      IN:
           ---                                      ---
             STORAGE =       39869.7344               STORAGE =         389.4278
       CONSTANT HEAD =       54545.1367         CONSTANT HEAD =         684.5772
               WELLS =           0.0000                 WELLS =           0.0000

            TOTAL IN =       94414.8750              TOTAL IN =        1074.0050

          OUT:                                     OUT:
          ----                                     ----
             STORAGE =       9.4320E-03               STORAGE =           0.0000
       CONSTANT HEAD =       51414.8555         CONSTANT HEAD =         574.0052
               WELLS =       43000.0000                 WELLS =         500.0000

           TOTAL OUT =       94414.8672             TOTAL OUT =        1074.0051

            IN - OUT =       7.8125E-03              IN - OUT =      -1.2207E-04

 PERCENT DISCREPANCY =           0.00     PERCENT DISCREPANCY =           0.00






          TIME SUMMARY AT END OF TIME STEP  86 IN STRESS PERIOD    2
                    SECONDS     MINUTES      HOURS       DAYS        YEARS
                    -----------------------------------------------------------
   TIME STEP LENGTH  86400.      1440.0      24.000      1.0000     2.73785E-03
 STRESS PERIOD TIME 7.43040E+06 1.23840E+05  2064.0      86.000     0.23546    
         TOTAL TIME 7.51680E+06 1.25280E+05  2088.0      87.000     0.23819    
1
 
 SOLVING FOR HEAD 

 OUTPUT CONTROL FOR STRESS PERIOD    2   TIME STEP  87
    SAVE HEAD FOR ALL LAYERS
    SAVE DRAWDOWN FOR ALL LAYERS
    SAVE BUDGET
    PRINT HEAD FOR ALL LAYERS
    PRINT BUDGET
 UBDSV1 SAVING "         STORAGE" ON UNIT  53 AT TIME STEP 87, STRESS PERIOD   2
 UBDSV2 SAVING "   CONSTANT HEAD" ON UNIT  53 AT TIME STEP 87, STRESS PERIOD   2
 UBDSV1 SAVING "FLOW RIGHT FACE " ON UNIT  53 AT TIME STEP 87, STRESS PERIOD   2
 UBDSV1 SAVING "FLOW FRONT FACE " ON UNIT  53 AT TIME STEP 87, STRESS PERIOD   2
1
              HEAD IN LAYER   1 AT END OF TIME STEP  87 IN STRESS PERIOD    2
  ---------------------------------------------------------------------------

            1           2           3           4           5           6           7           8           9          10
           11          12          13          14          15          16          17          18          19          20
           21          22          23          24          25          26          27          28          29          30
           31          32          33          34          35          36          37          38          39          40
           41          42          43          44          45          46          47          48          49          50
 ........................................................................................................................
   1    10.00       9.953       9.887       9.811       9.738       9.654       9.575       9.497       9.399       9.303    
        9.228       9.155       9.081       9.009       8.892       8.752       8.596       8.473       8.409       8.336    
        8.250       8.181       8.114       8.037       7.936       7.737       7.513       7.357       7.206       7.065    
        6.881       6.587       6.212       5.796       5.365       4.908       4.455       4.079       3.590       3.056    
        2.620       2.203       1.741       1.354       1.116      0.9155      0.7564      0.6413      0.4304       0.000    
   2    10.00       9.952       9.892       9.816       9.741       9.667       9.589       9.486       9.378       9.299    
        9.235       9.173       9.111       9.021       8.888       8.741       8.594       8.472       8.407       8.325    
        8.238       8.186       8.132       8.052       7.923       7.728       7.524       7.364       7.212       7.074    
        6.869       6.561       6.167       5.692       5.233       4.790       4.399       4.035       3.537       3.021    
        2.583       2.115       1.694       1.392       1.169      0.9963      0.7994      0.6241      0.3482       0.000    
   3    10.00       9.946       9.886       9.818       9.752       9.677       9.576       9.468       9.392       9.321    
        9.249       9.192       9.137       9.051       8.914       8.733       8.572       8.474       8.398       8.314    
        8.243       8.189       8.133       8.025       7.884       7.709       7.533       7.407       7.229       7.049    
        6.790       6.424       5.971       5.510       5.105       4.695       4.313       3.922       3.403       2.926    
        2.552       2.123       1.739       1.463       1.243       1.065      0.8314      0.5576      0.2528       0.000    
   4    10.00       9.946       9.887       9.821       9.746       9.659       9.555       9.472       9.407       9.334    
        9.270       9.223       9.162       9.064       8.930       8.737       8.570       8.478       8.392       8.318    
        8.241       8.173       8.102       7.988       7.848       7.691       7.530       7.374       7.215       7.010    
        6.684       6.196       5.714       5.364       5.031       4.609       4.150       3.691       3.277       2.921    
        2.572       2.176       1.817       1.569       1.322       1.095      0.8073      0.5013      0.2402       0.000    
   5    10.00       9.942       9.882       9.808       9.733       9.652       9.558       9.486       9.418       9.350    
        9.295       9.249       9.168       9.053       8.905       8.729       8.587       8.486       8.402       8.301    
        8.208       8.135       8.047       7.936       7.811       7.649       7.488       7.344       7.185       6.932    
        6.459       5.909       5.523       5.251       4.921       4.467       3.994       3.581       3.274       2.954    
        2.614       2.252       1.899       1.669       1.404       1.078      0.7345      0.4467      0.2247       0.000    
   6    10.00       9.934       9.863       9.801       9.732       9.644       9.565       9.504       9.432       9.368    
        9.316       9.259       9.157       9.027       8.897       8.750       8.607       8.489       8.377       8.259    
        8.166       8.079       8.002       7.902       7.742       7.582       7.453       7.306       7.083       6.696    
        6.171       5.671       5.350       5.118       4.819       4.370       3.903       3.560       3.303       3.015    
        2.708       2.392       2.032       1.726       1.375       1.016      0.6481      0.3851      0.2120       0.000    
   7    10.00       9.921       9.852       9.794       9.723       9.650       9.579       9.521       9.455       9.391    
        9.327       9.241       9.129       9.007       8.884       8.767       8.617       8.456       8.325       8.210    
        8.112       8.028       7.963       7.835       7.670       7.537       7.405       7.204       6.837       6.340    
        5.841       5.439       5.225       5.020       4.673       4.251       3.940       3.611       3.334       3.149    
        2.862       2.525       2.103       1.665       1.273      0.8810      0.5575      0.3875      0.1995       0.000    
   8    10.00       9.920       9.858       9.792       9.721       9.655       9.594       9.535       9.474       9.413    
        9.328       9.218       9.107       8.990       8.877       8.745       8.555       8.386       8.279       8.169    
        8.059       7.987       7.888       7.750       7.605       7.465       7.240       6.925       6.459       6.023    
        5.654       5.350       5.157       4.922       4.550       4.205       3.925       3.684       3.474       3.264    
        2.984       2.561       2.044       1.578       1.170      0.8235      0.5895      0.3791      0.1818       0.000    
   9    10.00       9.933       9.857       9.785       9.732       9.677       9.616       9.553       9.485       9.419    
        9.321       9.195       9.073       8.957       8.835       8.679       8.494       8.339       8.223       8.110    
        8.013       7.920       7.784       7.652       7.516       7.341       7.013       6.589       6.153       5.837    
        5.535       5.289       5.078       4.785       4.443       4.156       3.946       3.772       3.585       3.355    
        3.020       2.559       2.033       1.572       1.176      0.8406      0.5942      0.3821      0.1954       0.000    
  10    10.00       9.930       9.850       9.791       9.742       9.689       9.633       9.579       9.500       9.402    
        9.282       9.150       9.033       8.924       8.797       8.605       8.411       8.275       8.170       8.063    
        7.972       7.842       7.692       7.542       7.383       7.124       6.700       6.262       5.895       5.642    
        5.451       5.246       4.987       4.692       4.379       4.143       3.987       3.837       3.635       3.370    
        2.986       2.510       2.032       1.639       1.271      0.9235      0.6121      0.4055      0.2180       0.000    
  11    10.00       9.915       9.850       9.801       9.752       9.707       9.656       9.579       9.471       9.361    
        9.240       9.110       9.002       8.869       8.696       8.512       8.353       8.233       8.136       8.029    
        7.892       7.724       7.519       7.347       7.077       6.714       6.354       6.035       5.732       5.547    
        5.401       5.136       4.857       4.614       4.377       4.201       4.041       3.849       3.600       3.279    
        2.920       2.554       2.097       1.712       1.363       1.020      0.6867      0.3979      0.1669       0.000    
  12    10.00       9.917       9.857       9.806       9.764       9.717       9.657       9.550       9.423       9.318    
        9.205       9.069       8.937       8.778       8.626       8.456       8.302       8.200       8.092       7.941    
        7.710       7.459       7.216       6.975       6.613       6.340       6.141       5.829       5.581       5.448    
        5.282       5.033       4.807       4.585       4.419       4.251       4.051       3.817       3.515       3.196    
        2.894       2.565       2.126       1.749       1.422       1.063      0.7211      0.3745      0.1243       0.000    
  13    10.00       9.933       9.876       9.821       9.772       9.716       9.619       9.495       9.376       9.268    
        9.140       9.007       8.869       8.704       8.536       8.377       8.264       8.135       7.992       7.690    
        7.339       7.074       6.806       6.484       6.209       6.081       5.856       5.583       5.452       5.330    
        5.136       4.925       4.749       4.588       4.448       4.291       4.054       3.741       3.454       3.156    
        2.870       2.531       2.061       1.712       1.431       1.051      0.6610      0.3224      9.8683E-02   0.000    
  14    10.00       9.948       9.899       9.841       9.772       9.678       9.553       9.428       9.320       9.200    
        9.069       8.945       8.788       8.614       8.464       8.327       8.155       7.985       7.696       7.247    
        6.911       6.655       6.300       6.050       5.925       5.811       5.590       5.423       5.295       5.168    
        5.001       4.855       4.733       4.599       4.449       4.297       4.028       3.690       3.396       3.090    
        2.800       2.381       1.935       1.663       1.344       1.003      0.6595      0.2974      8.4718E-02   0.000    
  15    10.00       9.958       9.907       9.842       9.758       9.621       9.469       9.358       9.257       9.139    
        9.036       8.907       8.705       8.507       8.368       8.151       7.931       7.754       7.311       6.822    
        6.521       6.181       5.884       5.793       5.731       5.585       5.398       5.243       5.145       5.049    
        4.926       4.822       4.724       4.606       4.461       4.277       3.963       3.590       3.283       3.008    
        2.699       2.279       1.932       1.592       1.215      0.9160      0.5877      0.2719      9.1978E-02   0.000    
  16    10.00       9.965       9.910       9.829       9.706       9.542       9.405       9.318       9.228       9.109    
        8.985       8.793       8.540       8.348       8.149       7.897       7.751       7.388       6.768       6.344    
        6.083       5.795       5.692       5.642       5.523       5.334       5.190       5.115       5.073       4.991    
        4.889       4.796       4.713       4.594       4.418       4.167       3.809       3.493       3.255       2.971    
        2.614       2.203       1.831       1.462       1.140      0.8092      0.5258      0.2738      9.7768E-02   0.000    
  17    10.00       9.960       9.893       9.784       9.643       9.474       9.353       9.277       9.169       9.041    
        8.817       8.548       8.337       8.141       7.884       7.634       7.326       6.748       6.238       5.978    
        5.776       5.627       5.557       5.434       5.248       5.115       5.075       5.056       5.014       4.933    
        4.844       4.764       4.676       4.554       4.297       3.971       3.698       3.498       3.272       2.930    
        2.481       2.082       1.737       1.393       1.020      0.6736      0.4473      0.2481      0.1033       0.000    
  18    10.00       9.943       9.856       9.729       9.544       9.401       9.316       9.201       9.069       8.876    
        8.591       8.368       8.170       7.871       7.536       7.193       6.764       6.266       5.959       5.762    
        5.611       5.483       5.368       5.201       5.075       5.036       5.020       4.999       4.943       4.865    
        4.792       4.711       4.600       4.410       4.147       3.889       3.681       3.519       3.234       2.814    
        2.384       1.970       1.624       1.301      0.9442      0.6201      0.3775      0.2070      9.6658E-02   0.000    
  19    10.00       9.923       9.823       9.637       9.453       9.369       9.260       9.111       8.951       8.731    
        8.478       8.258       7.939       7.513       7.166       6.831       6.375       5.976       5.783       5.656    
        5.497       5.334       5.204       5.066       5.000       4.982       4.960       4.917       4.847       4.781    
        4.709       4.620       4.474       4.284       4.076       3.862       3.688       3.481       3.076       2.663    
        2.324       1.902       1.530       1.216      0.8660      0.5581      0.3393      0.1963      9.8313E-02   0.000    
  20    10.00       9.900       9.746       9.553       9.417       9.321       9.200       9.039       8.848       8.644    
        8.380       8.052       7.620       7.232       6.927       6.529       6.118       5.916       5.754       5.581    
        5.408       5.238       5.079       4.978       4.933       4.896       4.845       4.799       4.731       4.671    
        4.602       4.513       4.369       4.209       4.026       3.848       3.666       3.342       2.921       2.573    
        2.200       1.790       1.460       1.148      0.8225      0.5012      0.2947      0.1980      0.1000       0.000    
  21    10.00       9.842       9.683       9.525       9.383       9.274       9.141       8.936       8.742       8.544    
        8.200       7.787       7.384       7.067       6.741       6.362       6.070       5.894       5.709       5.520    
        5.309       5.116       4.976       4.872       4.795       4.727       4.685       4.643       4.572       4.526    
        4.480       4.387       4.269       4.134       3.976       3.808       3.551       3.227       2.867       2.456    
        2.082       1.699       1.414       1.128      0.7150      0.4236      0.3020      0.2204      0.1060       0.000    
  22    10.00       9.819       9.631       9.477       9.356       9.225       9.030       8.825       8.653       8.391    
        8.030       7.599       7.254       6.990       6.634       6.285       6.040       5.859       5.675       5.447    
        5.204       5.009       4.826       4.666       4.562       4.513       4.479       4.422       4.399       4.373    
        4.339       4.270       4.184       4.063       3.920       3.759       3.494       3.176       2.753       2.350    
        2.028       1.681       1.366      0.9414      0.5897      0.4249      0.3197      0.2128      8.4563E-02   0.000    
  23    10.00       9.778       9.594       9.466       9.334       9.139       8.919       8.759       8.541       8.270    
        7.903       7.521       7.254       6.921       6.538       6.234       6.027       5.861       5.654       5.381    
        5.122       4.891       4.649       4.363       4.108       4.058       4.131       4.165       4.214       4.231    
        4.219       4.177       4.105       4.009       3.874       3.707       3.463       3.068       2.626       2.296    
        1.988       1.594       1.140      0.7714      0.5761      0.4366      0.3197      0.2030      9.4571E-02   0.000    
  24    10.00       9.747       9.614       9.466       9.279       9.065       8.892       8.718       8.505       8.192    
        7.855       7.559       7.264       6.864       6.459       6.219       6.048       5.875       5.625       5.349    
        5.092       4.826       4.457       3.797       2.804       3.135       3.587       3.874       4.028       4.091    
        4.112       4.089       4.043       3.946       3.816       3.648       3.345       2.931       2.558       2.209    
        1.834       1.417       1.014      0.7378      0.5746      0.4349      0.3129      0.2372      0.1306       0.000    
  25    10.00       9.780       9.639       9.461       9.264       9.073       8.895       8.730       8.470       8.159    
        7.876       7.590       7.231       6.793       6.479       6.259       6.068       5.865       5.631       5.375    
        5.097       4.832       4.158       2.755     -0.4271       2.150       3.124       3.613       3.874       3.994    
        4.032       4.025       3.979       3.867       3.731       3.526       3.212       2.816       2.480       2.102    
        1.670       1.277      0.9482      0.7324      0.5989      0.4685      0.3425      0.2525      0.1648       0.000    
  26    10.00       9.812       9.679       9.487       9.285       9.117       8.934       8.726       8.459       8.217    
        7.973       7.593       7.141       6.768       6.539       6.341       6.113       5.849       5.602       5.382    
        5.167       4.876       4.253       3.232       2.161       2.681       3.244       3.600       3.821       3.951    
        3.987       3.978       3.915       3.807       3.676       3.454       3.046       2.679       2.395       1.933    
        1.463       1.136      0.9419      0.7959      0.6536      0.5087      0.3774      0.2765      0.1651       0.000    
  27    10.00       9.853       9.693       9.530       9.349       9.156       8.974       8.773       8.535       8.303    
        7.977       7.531       7.139       6.835       6.633       6.410       6.112       5.821       5.620       5.444    
        5.264       4.963       4.495       3.930       3.328       3.344       3.542       3.729       3.872       3.951    
        3.971       3.953       3.891       3.780       3.602       3.255       2.869       2.579       2.138       1.680    
        1.341       1.125      0.9828      0.8591      0.7279      0.5606      0.4039      0.3024      0.2032       0.000    
  28    10.00       9.867       9.731       9.576       9.413       9.230       9.042       8.840       8.616       8.350    
        7.952       7.547       7.207       6.915       6.705       6.480       6.224       5.938       5.669       5.494    
        5.333       5.116       4.803       4.378       3.996       3.824       3.834       3.920       3.957       3.985    
        3.979       3.947       3.872       3.712       3.447       3.083       2.750       2.350       1.912       1.603    
        1.352       1.173       1.031      0.9087      0.7736      0.6135      0.4581      0.3443      0.2099       0.000    
  29    10.00       9.873       9.745       9.629       9.472       9.306       9.126       8.923       8.686       8.331    
        7.941       7.588       7.266       7.024       6.782       6.539       6.305       6.076       5.814       5.586    
        5.412       5.229       5.012       4.750       4.402       4.215       4.144       4.113       4.096       4.059    
        4.010       3.939       3.840       3.624       3.300       2.964       2.608       2.200       1.861       1.634    
        1.427       1.229       1.074      0.9537      0.8221      0.6578      0.4975      0.3644      0.2125       0.000    
  30    10.00       9.885       9.779       9.677       9.542       9.389       9.228       9.004       8.709       8.349    
        7.948       7.590       7.321       7.083       6.846       6.610       6.414       6.216       5.979       5.734    
        5.525       5.356       5.168       4.979       4.756       4.553       4.471       4.341       4.267       4.163    
        4.046       3.923       3.772       3.540       3.263       2.937       2.564       2.183       1.929       1.717    
        1.482       1.287       1.137      0.9935      0.8452      0.6995      0.5311      0.3804      0.2299       0.000    
  31    10.00       9.905       9.814       9.719       9.621       9.501       9.327       9.064       8.726       8.352    
        7.966       7.633       7.378       7.136       6.924       6.707       6.500       6.348       6.120       5.884    
        5.682       5.506       5.340       5.168       5.026       4.865       4.706       4.559       4.408       4.257    
        4.080       3.904       3.742       3.544       3.264       2.918       2.558       2.237       2.028       1.837    
        1.592       1.366       1.191       1.039      0.8908      0.7361      0.5667      0.4072      0.2242       0.000    
  32    10.00       9.920       9.851       9.768       9.673       9.566       9.395       9.100       8.784       8.444    
        8.037       7.692       7.438       7.210       6.998       6.815       6.632       6.440       6.255       6.030    
        5.818       5.626       5.465       5.306       5.175       5.062       4.885       4.714       4.520       4.314    
        4.119       3.933       3.747       3.551       3.283       2.967       2.662       2.376       2.152       1.937    
        1.710       1.473       1.285       1.106      0.9355      0.7947      0.6209      0.4093      0.2035       0.000    
  33    10.00       9.931       9.875       9.809       9.717       9.596       9.381       9.098       8.833       8.521    
        8.127       7.785       7.524       7.277       7.082       6.924       6.761       6.570       6.364       6.159    
        5.937       5.732       5.544       5.388       5.281       5.168       5.003       4.797       4.597       4.397    
        4.198       4.019       3.824       3.570       3.313       3.023       2.760       2.530       2.296       2.061    
        1.849       1.623       1.415       1.226       1.036      0.8677      0.6718      0.4211      0.1984       0.000    
  34    10.00       9.939       9.901       9.844       9.732       9.567       9.362       9.153       8.883       8.545    
        8.201       7.870       7.592       7.348       7.170       7.044       6.871       6.680       6.457       6.265    
        6.064       5.823       5.635       5.489       5.381       5.253       5.065       4.880       4.670       4.452    
        4.285       4.115       3.941       3.688       3.415       3.145       2.902       2.696       2.453       2.215    
        2.009       1.800       1.579       1.385       1.182      0.9830      0.7317      0.4705      0.2480       0.000    
  35    10.00       9.950       9.907       9.836       9.699       9.527       9.377       9.200       8.955       8.595    
        8.230       7.927       7.650       7.437       7.282       7.140       6.963       6.754       6.541       6.327    
        6.146       5.935       5.743       5.606       5.489       5.362       5.157       4.932       4.710       4.504    
        4.375       4.219       4.029       3.835       3.596       3.305       3.055       2.884       2.635       2.362    
        2.166       1.956       1.745       1.555       1.325       1.103      0.8481      0.5663      0.2830       0.000    
  36    10.00       9.947       9.887       9.808       9.673       9.510       9.377       9.215       8.971       8.638    
        8.262       7.936       7.727       7.553       7.407       7.234       7.024       6.823       6.600       6.346    
        6.154       5.989       5.822       5.703       5.587       5.436       5.225       4.989       4.763       4.565    
        4.433       4.302       4.120       3.933       3.727       3.461       3.204       3.012       2.791       2.495    
        2.272       2.061       1.845       1.687       1.465       1.217      0.9618      0.6665      0.3391       0.000    
  37    10.00       9.932       9.866       9.781       9.646       9.498       9.349       9.194       8.972       8.618    
        8.240       7.970       7.837       7.673       7.483       7.313       7.079       6.839       6.577       6.328    
        6.170       6.038       5.883       5.762       5.629       5.455       5.259       5.021       4.816       4.655    
        4.508       4.360       4.172       4.005       3.790       3.534       3.329       3.140       2.893       2.599    
        2.332       2.125       1.951       1.772       1.563       1.331       1.085      0.7536      0.4084       0.000    
  38    10.00       9.925       9.841       9.751       9.627       9.484       9.321       9.160       8.928       8.601    
        8.312       8.092       7.922       7.775       7.566       7.313       7.055       6.778       6.501       6.334    
        6.210       6.054       5.913       5.805       5.668       5.471       5.237       5.020       4.889       4.755    
        4.592       4.423       4.237       4.065       3.853       3.614       3.427       3.235       2.940       2.632    
        2.399       2.205       2.028       1.849       1.661       1.437       1.183      0.8632      0.4480       0.000    
  39    10.00       9.906       9.822       9.733       9.612       9.453       9.279       9.111       8.900       8.637    
        8.411       8.247       8.058       7.853       7.565       7.245       6.933       6.641       6.469       6.355    
        6.198       6.036       5.932       5.833       5.707       5.483       5.241       5.083       4.962       4.824    
        4.652       4.486       4.297       4.110       3.928       3.727       3.511       3.286       2.982       2.675    
        2.431       2.235       2.097       1.954       1.749       1.520       1.263      0.9156      0.4485       0.000    
  40    10.00       9.891       9.810       9.721       9.600       9.435       9.257       9.088       8.908       8.691    
        8.504       8.365       8.139       7.825       7.467       7.114       6.798       6.592       6.473       6.344    
        6.175       6.032       5.936       5.826       5.680       5.501       5.329       5.164       5.020       4.891    
        4.733       4.545       4.351       4.172       4.001       3.796       3.563       3.336       3.004       2.669    
        2.447       2.283       2.138       2.015       1.807       1.552       1.316      0.9518      0.4700       0.000    
  41    10.00       9.899       9.805       9.707       9.575       9.426       9.270       9.119       8.948       8.754    
        8.578       8.413       8.121       7.729       7.335       7.014       6.761       6.583       6.462       6.319    
        6.149       6.026       5.925       5.808       5.676       5.541       5.410       5.252       5.081       4.932    
        4.788       4.607       4.409       4.244       4.064       3.863       3.624       3.307       2.939       2.680    
        2.498       2.327       2.193       2.038       1.819       1.566       1.357       1.010      0.5176       0.000    
  42    10.00       9.903       9.799       9.709       9.594       9.455       9.301       9.133       8.981       8.833    
        8.627       8.341       7.978       7.576       7.222       6.972       6.753       6.584       6.446       6.275    
        6.119       6.006       5.905       5.818       5.702       5.600       5.478       5.299       5.117       4.981    
        4.851       4.656       4.442       4.287       4.132       3.906       3.599       3.220       2.892       2.693    
        2.548       2.402       2.236       2.034       1.807       1.603       1.392       1.052      0.5416       0.000    
  43    10.00       9.905       9.809       9.718       9.627       9.504       9.351       9.186       9.022       8.816    
        8.530       8.203       7.833       7.445       7.168       6.958       6.751       6.577       6.411       6.243    
        6.095       5.990       5.912       5.843       5.740       5.628       5.510       5.337       5.172       5.059    
        4.895       4.679       4.477       4.324       4.146       3.871       3.510       3.144       2.915       2.757    
        2.603       2.445       2.243       2.024       1.817       1.619       1.430       1.049      0.4728       0.000    
  44    10.00       9.899       9.812       9.733       9.634       9.541       9.411       9.213       8.996       8.715    
        8.427       8.083       7.678       7.396       7.179       6.949       6.724       6.528       6.349       6.199    
        6.092       6.006       5.931       5.859       5.770       5.657       5.518       5.381       5.252       5.109    
        4.952       4.756       4.528       4.311       4.103       3.822       3.446       3.128       2.944       2.791    
        2.643       2.469       2.266       2.071       1.854       1.635       1.387      0.8988      0.3973       0.000    
  45    10.00       9.899       9.828       9.737       9.644       9.561       9.375       9.152       8.899       8.623    
        8.380       7.970       7.592       7.380       7.162       6.911       6.659       6.459       6.301       6.191    
        6.113       6.036       5.957       5.870       5.776       5.672       5.556       5.438       5.333       5.187    
        4.998       4.789       4.558       4.296       4.059       3.754       3.399       3.148       2.996       2.843    
        2.651       2.451       2.272       2.096       1.906       1.670       1.251      0.7538      0.3818       0.000    
  46    10.00       9.917       9.841       9.745       9.642       9.488       9.293       9.109       8.878       8.608    
        8.260       7.882       7.579       7.315       7.092       6.845       6.594       6.438       6.318       6.216    
        6.144       6.072       5.979       5.876       5.782       5.690       5.594       5.489       5.384       5.251    
        5.075       4.857       4.600       4.304       3.974       3.645       3.386       3.214       3.045       2.869    
        2.648       2.438       2.261       2.119       1.915       1.586       1.123      0.7104      0.3610       0.000    
  47    10.00       9.935       9.865       9.765       9.589       9.402       9.236       9.079       8.873       8.536    
        8.161       7.810       7.518       7.297       7.058       6.784       6.568       6.428       6.333       6.249    
        6.172       6.089       5.998       5.896       5.802       5.722       5.637       5.533       5.412       5.280    
        5.125       4.932       4.601       4.210       3.899       3.655       3.429       3.282       3.126       2.882    
        2.618       2.398       2.232       2.117       1.861       1.468       1.043      0.6840      0.3511       0.000    
  48    10.00       9.943       9.869       9.720       9.542       9.388       9.210       9.052       8.832       8.478    
        8.070       7.751       7.515       7.251       6.973       6.728       6.564       6.428       6.337       6.275    
        6.198       6.099       5.998       5.909       5.834       5.766       5.685       5.570       5.427       5.273    
        5.113       4.892       4.551       4.229       3.956       3.714       3.502       3.335       3.135       2.843    
        2.563       2.386       2.247       2.031       1.688       1.337      0.9962      0.6892      0.3708       0.000    
  49    10.00       9.940       9.835       9.702       9.556       9.377       9.198       9.020       8.748       8.374    
        8.022       7.724       7.439       7.189       6.975       6.743       6.533       6.409       6.349       6.289    
        6.217       6.105       5.993       5.919       5.857       5.803       5.713       5.574       5.413       5.266    
        5.098       4.828       4.539       4.323       4.073       3.789       3.533       3.331       3.100       2.788    
        2.562       2.407       2.200       1.874       1.569       1.282      0.9852      0.6893      0.3697       0.000    
  50    10.00       9.933       9.823       9.687       9.555       9.388       9.188       8.966       8.680       8.383    
        8.016       7.643       7.379       7.179       6.998       6.737       6.504       6.412       6.358       6.297    
        6.225       6.110       5.995       5.924       5.871       5.821       5.719       5.561       5.397       5.257    
        5.085       4.807       4.583       4.390       4.128       3.847       3.579       3.303       2.986       2.724    
        2.608       2.432       2.113       1.785       1.558       1.279      0.9991      0.6753      0.3011       0.000    

 HEAD WILL BE SAVED ON UNIT   51 AT END OF TIME STEP  87, STRESS PERIOD    2

 DRAWDOWN WILL BE SAVED ON UNIT   52 AT END OF TIME STEP  87, STRESS PERIOD    2
1
  VOLUMETRIC BUDGET FOR ENTIRE MODEL AT END OF TIME STEP 87 IN STRESS PERIOD   2
  ------------------------------------------------------------------------------

     CUMULATIVE VOLUMES      L**3       RATES FOR THIS TIME STEP      L**3/T
     ------------------                 ------------------------

           IN:                                      IN:
           ---                                      ---
             STORAGE =       40257.0312               STORAGE =         387.2965
       CONSTANT HEAD =       55231.2266         CONSTANT HEAD =         686.0889
               WELLS =           0.0000                 WELLS =           0.0000

            TOTAL IN =       95488.2578              TOTAL IN =        1073.3855

          OUT:                                     OUT:
          ----                                     ----
             STORAGE =       9.4320E-03               STORAGE =           0.0000
       CONSTANT HEAD =       51988.2422         CONSTANT HEAD =         573.3850
               WELLS =       43500.0000                 WELLS =         500.0000

           TOTAL OUT =       95488.2500             TOTAL OUT =        1073.3850

            IN - OUT =       7.8125E-03              IN - OUT =       4.8828E-04

 PERCENT DISCREPANCY =           0.00     PERCENT DISCREPANCY =           0.00






          TIME SUMMARY AT END OF TIME STEP  87 IN STRESS PERIOD    2
                    SECONDS     MINUTES      HOURS       DAYS        YEARS
                    -----------------------------------------------------------
   TIME STEP LENGTH  86400.      1440.0      24.000      1.0000     2.73785E-03
 STRESS PERIOD TIME 7.51680E+06 1.25280E+05  2088.0      87.000     0.23819    
         TOTAL TIME 7.60320E+06 1.26720E+05  2112.0      88.000     0.24093    
1
 
 SOLVING FOR HEAD 

 OUTPUT CONTROL FOR STRESS PERIOD    2   TIME STEP  88
    SAVE HEAD FOR ALL LAYERS
    SAVE DRAWDOWN FOR ALL LAYERS
    SAVE BUDGET
    PRINT HEAD FOR ALL LAYERS
    PRINT BUDGET
 UBDSV1 SAVING "         STORAGE" ON UNIT  53 AT TIME STEP 88, STRESS PERIOD   2
 UBDSV2 SAVING "   CONSTANT HEAD" ON UNIT  53 AT TIME STEP 88, STRESS PERIOD   2
 UBDSV1 SAVING "FLOW RIGHT FACE " ON UNIT  53 AT TIME STEP 88, STRESS PERIOD   2
 UBDSV1 SAVING "FLOW FRONT FACE " ON UNIT  53 AT TIME STEP 88, STRESS PERIOD   2
1
              HEAD IN LAYER   1 AT END OF TIME STEP  88 IN STRESS PERIOD    2
  ---------------------------------------------------------------------------

            1           2           3           4           5           6           7           8           9          10
           11          12          13          14          15          16          17          18          19          20
           21          22          23          24          25          26          27          28          29          30
           31          32          33          34          35          36          37          38          39          40
           41          42          43          44          45          46          47          48          49          50
 ........................................................................................................................
   1    10.00       9.953       9.887       9.811       9.737       9.653       9.574       9.496       9.397       9.301    
        9.226       9.153       9.079       9.007       8.890       8.749       8.593       8.470       8.406       8.333    
        8.246       8.177       8.110       8.034       7.932       7.733       7.509       7.353       7.202       7.060    
        6.877       6.583       6.208       5.792       5.361       4.904       4.452       4.076       3.586       3.053    
        2.617       2.201       1.739       1.353       1.115      0.9145      0.7556      0.6406      0.4300       0.000    
   2    10.00       9.952       9.892       9.815       9.740       9.666       9.588       9.485       9.377       9.298    
        9.233       9.171       9.109       9.019       8.885       8.738       8.591       8.469       8.404       8.322    
        8.235       8.183       8.129       8.049       7.919       7.724       7.520       7.360       7.208       7.070    
        6.865       6.557       6.162       5.688       5.228       4.786       4.395       4.032       3.533       3.018    
        2.581       2.113       1.693       1.390       1.167      0.9952      0.7985      0.6234      0.3478       0.000    
   3    10.00       9.946       9.885       9.817       9.752       9.676       9.575       9.467       9.390       9.319    
        9.247       9.190       9.135       9.049       8.912       8.730       8.569       8.471       8.394       8.311    
        8.240       8.186       8.129       8.021       7.880       7.705       7.529       7.403       7.224       7.044    
        6.786       6.420       5.967       5.506       5.101       4.691       4.309       3.918       3.400       2.923    
        2.549       2.120       1.737       1.462       1.241       1.063      0.8305      0.5570      0.2526       0.000    
   4    10.00       9.946       9.886       9.820       9.746       9.658       9.554       9.471       9.405       9.332    
        9.269       9.221       9.160       9.061       8.928       8.734       8.567       8.474       8.389       8.314    
        8.238       8.170       8.098       7.984       7.844       7.687       7.526       7.370       7.210       7.006    
        6.679       6.191       5.709       5.360       5.026       4.605       4.146       3.688       3.274       2.918    
        2.569       2.174       1.815       1.568       1.321       1.094      0.8064      0.5007      0.2399       0.000    
   5    10.00       9.942       9.882       9.807       9.732       9.651       9.557       9.485       9.417       9.349    
        9.294       9.247       9.166       9.051       8.903       8.727       8.585       8.483       8.398       8.297    
        8.204       8.131       8.043       7.932       7.807       7.645       7.484       7.340       7.180       6.928    
        6.454       5.904       5.518       5.246       4.917       4.463       3.990       3.577       3.271       2.950    
        2.611       2.249       1.896       1.667       1.402       1.076      0.7337      0.4462      0.2244       0.000    
   6    10.00       9.934       9.863       9.800       9.732       9.643       9.564       9.503       9.431       9.366    
        9.314       9.257       9.155       9.025       8.895       8.747       8.604       8.486       8.373       8.255    
        8.162       8.075       7.998       7.898       7.737       7.578       7.449       7.301       7.078       6.691    
        6.166       5.665       5.345       5.113       4.814       4.365       3.899       3.556       3.299       3.011    
        2.705       2.389       2.030       1.724       1.373       1.015      0.6473      0.3847      0.2118       0.000    
   7    10.00       9.921       9.852       9.794       9.722       9.649       9.578       9.520       9.453       9.390    
        9.326       9.239       9.127       9.004       8.881       8.765       8.614       8.452       8.322       8.206    
        8.108       8.024       7.958       7.831       7.666       7.532       7.400       7.199       6.832       6.335    
        5.835       5.433       5.220       5.014       4.668       4.246       3.935       3.607       3.330       3.146    
        2.858       2.522       2.101       1.663       1.272      0.8799      0.5568      0.3870      0.1993       0.000    
   8    10.00       9.920       9.858       9.792       9.720       9.655       9.593       9.533       9.473       9.411    
        9.326       9.216       9.105       8.988       8.874       8.742       8.552       8.383       8.276       8.165    
        8.055       7.983       7.884       7.745       7.600       7.460       7.235       6.920       6.453       6.018    
        5.648       5.344       5.151       4.916       4.545       4.200       3.920       3.679       3.470       3.259    
        2.981       2.558       2.042       1.576       1.169      0.8225      0.5888      0.3787      0.1816       0.000    
   9    10.00       9.933       9.857       9.784       9.731       9.677       9.615       9.552       9.484       9.418    
        9.319       9.193       9.071       8.954       8.832       8.676       8.491       8.335       8.220       8.106    
        8.008       7.916       7.780       7.647       7.511       7.336       7.008       6.583       6.147       5.830    
        5.529       5.283       5.071       4.779       4.437       4.151       3.940       3.767       3.581       3.351    
        3.016       2.556       2.031       1.570       1.175      0.8395      0.5934      0.3816      0.1952       0.000    
  10    10.00       9.929       9.850       9.791       9.741       9.688       9.632       9.578       9.499       9.401    
        9.280       9.147       9.031       8.921       8.795       8.601       8.407       8.271       8.166       8.059    
        7.968       7.838       7.687       7.537       7.378       7.119       6.694       6.256       5.889       5.635    
        5.444       5.239       4.981       4.686       4.373       4.137       3.981       3.831       3.630       3.365    
        2.982       2.507       2.029       1.637       1.269      0.9223      0.6113      0.4050      0.2177       0.000    
  11    10.00       9.915       9.850       9.801       9.752       9.707       9.655       9.578       9.470       9.359    
        9.238       9.108       9.000       8.867       8.693       8.509       8.349       8.229       8.132       8.024    
        7.887       7.720       7.514       7.342       7.071       6.707       6.347       6.028       5.725       5.540    
        5.394       5.129       4.850       4.608       4.371       4.195       4.035       3.844       3.595       3.275    
        2.915       2.550       2.094       1.710       1.361       1.018      0.6858      0.3974      0.1667       0.000    
  12    10.00       9.917       9.857       9.805       9.764       9.716       9.657       9.549       9.422       9.316    
        9.203       9.067       8.934       8.775       8.623       8.453       8.299       8.196       8.087       7.937    
        7.705       7.454       7.211       6.968       6.606       6.333       6.134       5.821       5.574       5.440    
        5.274       5.026       4.800       4.578       4.413       4.245       4.045       3.812       3.510       3.191    
        2.889       2.561       2.123       1.746       1.420       1.062      0.7200      0.3740      0.1241       0.000    
  13    10.00       9.933       9.876       9.821       9.771       9.715       9.618       9.494       9.374       9.266    
        9.138       9.004       8.866       8.700       8.532       8.373       8.260       8.131       7.987       7.685    
        7.333       7.067       6.800       6.477       6.201       6.073       5.848       5.575       5.444       5.322    
        5.128       4.917       4.741       4.581       4.441       4.285       4.048       3.735       3.448       3.151    
        2.865       2.527       2.058       1.709       1.429       1.050      0.6600      0.3219      9.8538E-02   0.000    
  14    10.00       9.948       9.899       9.840       9.771       9.677       9.551       9.426       9.318       9.198    
        9.066       8.942       8.784       8.610       8.461       8.323       8.150       7.980       7.691       7.241    
        6.904       6.648       6.292       6.042       5.917       5.803       5.581       5.414       5.286       5.159    
        4.993       4.847       4.725       4.591       4.442       4.290       4.021       3.684       3.390       3.085    
        2.796       2.377       1.932       1.660       1.342       1.002      0.6584      0.2970      8.4586E-02   0.000    
  15    10.00       9.958       9.907       9.841       9.758       9.620       9.467       9.356       9.255       9.136    
        9.033       8.904       8.702       8.503       8.364       8.146       7.926       7.748       7.304       6.815    
        6.513       6.173       5.875       5.785       5.722       5.576       5.389       5.234       5.136       5.040    
        4.917       4.813       4.716       4.598       4.453       4.270       3.956       3.584       3.278       3.003    
        2.695       2.275       1.928       1.590       1.213      0.9145      0.5867      0.2714      9.1828E-02   0.000    
  16    10.00       9.965       9.910       9.828       9.705       9.541       9.403       9.316       9.226       9.106    
        8.982       8.790       8.535       8.343       8.144       7.892       7.746       7.381       6.761       6.336    
        6.074       5.786       5.683       5.633       5.513       5.325       5.180       5.106       5.064       4.983    
        4.881       4.788       4.705       4.586       4.411       4.159       3.802       3.486       3.249       2.965    
        2.609       2.199       1.828       1.460       1.138      0.8079      0.5249      0.2734      9.7604E-02   0.000    
  17    10.00       9.960       9.892       9.783       9.642       9.472       9.351       9.274       9.166       9.039    
        8.813       8.544       8.332       8.136       7.878       7.628       7.319       6.740       6.230       5.969    
        5.766       5.618       5.547       5.424       5.238       5.106       5.066       5.046       5.005       4.924    
        4.835       4.755       4.668       4.546       4.289       3.964       3.691       3.491       3.266       2.924    
        2.477       2.078       1.734       1.391       1.018      0.6725      0.4465      0.2476      0.1032       0.000    
  18    10.00       9.943       9.855       9.728       9.542       9.399       9.313       9.198       9.066       8.873    
        8.587       8.363       8.164       7.865       7.530       7.186       6.756       6.257       5.949       5.753    
        5.601       5.473       5.358       5.192       5.065       5.026       5.011       4.990       4.933       4.856    
        4.783       4.702       4.591       4.401       4.138       3.881       3.674       3.512       3.228       2.808    
        2.380       1.966       1.621       1.299      0.9425      0.6190      0.3769      0.2067      9.6488E-02   0.000    
  19    10.00       9.923       9.822       9.636       9.451       9.367       9.258       9.108       8.947       8.727    
        8.473       8.252       7.933       7.506       7.159       6.823       6.366       5.966       5.774       5.647    
        5.487       5.325       5.195       5.056       4.990       4.972       4.951       4.907       4.837       4.771    
        4.699       4.611       4.465       4.276       4.068       3.854       3.681       3.474       3.070       2.658    
        2.320       1.899       1.527       1.214      0.8644      0.5571      0.3387      0.1960      9.8139E-02   0.000    
  20    10.00       9.900       9.745       9.551       9.415       9.318       9.197       9.036       8.844       8.640    
        8.375       8.046       7.613       7.224       6.919       6.520       6.109       5.907       5.745       5.572    
        5.399       5.228       5.069       4.968       4.923       4.886       4.835       4.789       4.721       4.661    
        4.592       4.503       4.360       4.200       4.017       3.840       3.658       3.335       2.915       2.568    
        2.195       1.787       1.457       1.146      0.8210      0.5003      0.2942      0.1977      9.9868E-02   0.000    
  21    10.00       9.842       9.682       9.523       9.381       9.271       9.138       8.932       8.738       8.539    
        8.195       7.781       7.377       7.059       6.733       6.352       6.061       5.885       5.700       5.510    
        5.299       5.106       4.966       4.862       4.785       4.717       4.675       4.633       4.562       4.516    
        4.470       4.377       4.259       4.125       3.967       3.800       3.544       3.220       2.861       2.451    
        2.078       1.695       1.411       1.125      0.7137      0.4228      0.3015      0.2201      0.1058       0.000    
  22    10.00       9.818       9.630       9.475       9.354       9.223       9.026       8.821       8.648       8.386    
        8.024       7.592       7.246       6.982       6.625       6.276       6.030       5.849       5.666       5.437    
        5.194       4.998       4.816       4.656       4.552       4.502       4.469       4.412       4.389       4.362    
        4.329       4.260       4.174       4.054       3.911       3.750       3.486       3.169       2.747       2.345    
        2.023       1.678       1.363      0.9396      0.5887      0.4242      0.3191      0.2124      8.4417E-02   0.000    
  23    10.00       9.777       9.593       9.464       9.332       9.136       8.915       8.755       8.537       8.264    
        7.896       7.514       7.246       6.913       6.529       6.225       6.018       5.852       5.644       5.371    
        5.111       4.880       4.639       4.352       4.098       4.047       4.120       4.154       4.203       4.221    
        4.208       4.166       4.094       3.999       3.864       3.698       3.454       3.061       2.620       2.291    
        1.984       1.591       1.138      0.7700      0.5751      0.4358      0.3192      0.2027      9.4413E-02   0.000    
  24    10.00       9.746       9.613       9.465       9.276       9.062       8.888       8.714       8.500       8.187    
        7.849       7.551       7.257       6.856       6.450       6.210       6.039       5.866       5.615       5.339    
        5.082       4.816       4.446       3.787       2.793       3.124       3.577       3.863       4.017       4.081    
        4.102       4.079       4.033       3.936       3.806       3.639       3.337       2.924       2.552       2.204    
        1.830       1.414       1.012      0.7365      0.5736      0.4342      0.3124      0.2368      0.1304       0.000    
  25    10.00       9.779       9.638       9.459       9.262       9.070       8.892       8.726       8.465       8.154    
        7.870       7.583       7.224       6.785       6.470       6.250       6.059       5.855       5.621       5.365    
        5.087       4.822       4.148       2.744     -0.4389       2.138       3.113       3.602       3.863       3.984    
        4.021       4.015       3.968       3.857       3.721       3.517       3.205       2.809       2.474       2.097    
        1.667       1.275      0.9465      0.7312      0.5979      0.4677      0.3419      0.2521      0.1646       0.000    
  26    10.00       9.811       9.678       9.486       9.282       9.114       8.931       8.722       8.454       8.212    
        7.967       7.586       7.133       6.760       6.530       6.332       6.104       5.839       5.592       5.372    
        5.157       4.865       4.242       3.221       2.149       2.669       3.233       3.589       3.810       3.940    
        3.976       3.968       3.905       3.797       3.666       3.446       3.039       2.673       2.389       1.929    
        1.460       1.134      0.9404      0.7947      0.6526      0.5079      0.3768      0.2761      0.1649       0.000    
  27    10.00       9.853       9.692       9.528       9.347       9.153       8.971       8.769       8.530       8.298    
        7.971       7.524       7.131       6.827       6.624       6.401       6.102       5.812       5.610       5.434    
        5.254       4.952       4.484       3.919       3.317       3.333       3.531       3.718       3.861       3.940    
        3.960       3.942       3.881       3.770       3.593       3.247       2.863       2.573       2.134       1.677    
        1.338       1.124      0.9813      0.8578      0.7268      0.5598      0.4033      0.3019      0.2029       0.000    
  28    10.00       9.866       9.730       9.575       9.411       9.228       9.039       8.837       8.612       8.344    
        7.946       7.540       7.200       6.907       6.696       6.471       6.215       5.929       5.659       5.485    
        5.323       5.106       4.793       4.368       3.985       3.813       3.823       3.908       3.946       3.974    
        3.969       3.936       3.863       3.703       3.439       3.076       2.744       2.345       1.908       1.601    
        1.350       1.172       1.030      0.9073      0.7725      0.6126      0.4575      0.3438      0.2096       0.000    
  29    10.00       9.873       9.744       9.628       9.471       9.304       9.123       8.920       8.682       8.326    
        7.935       7.581       7.258       7.016       6.774       6.531       6.296       6.067       5.804       5.576    
        5.402       5.219       5.002       4.740       4.391       4.204       4.133       4.102       4.086       4.049    
        3.999       3.929       3.831       3.616       3.293       2.957       2.603       2.196       1.858       1.631    
        1.425       1.227       1.072      0.9524      0.8209      0.6569      0.4968      0.3639      0.2122       0.000    
  30    10.00       9.885       9.778       9.676       9.540       9.387       9.226       9.001       8.706       8.345    
        7.942       7.584       7.314       7.075       6.838       6.602       6.405       6.207       5.969       5.725    
        5.515       5.346       5.158       4.968       4.745       4.543       4.460       4.330       4.256       4.153    
        4.036       3.914       3.764       3.533       3.257       2.932       2.560       2.179       1.926       1.715    
        1.480       1.285       1.136      0.9921      0.8440      0.6985      0.5304      0.3799      0.2296       0.000    
  31    10.00       9.905       9.813       9.718       9.620       9.499       9.325       9.061       8.722       8.347    
        7.961       7.627       7.371       7.128       6.917       6.698       6.491       6.339       6.111       5.875    
        5.673       5.497       5.331       5.158       5.016       4.855       4.696       4.549       4.398       4.248    
        4.072       3.896       3.735       3.538       3.258       2.913       2.554       2.234       2.025       1.834    
        1.590       1.364       1.189       1.037      0.8896      0.7351      0.5659      0.4067      0.2239       0.000    
  32    10.00       9.920       9.850       9.768       9.672       9.564       9.393       9.097       8.781       8.440    
        8.032       7.685       7.431       7.203       6.991       6.808       6.623       6.431       6.246       6.021    
        5.809       5.617       5.455       5.297       5.166       5.052       4.875       4.705       4.511       4.306    
        4.112       3.926       3.741       3.545       3.278       2.962       2.658       2.373       2.149       1.935    
        1.708       1.471       1.283       1.104      0.9344      0.7937      0.6201      0.4088      0.2032       0.000    
  33    10.00       9.931       9.875       9.808       9.716       9.595       9.379       9.095       8.830       8.517    
        8.122       7.779       7.517       7.270       7.075       6.916       6.753       6.562       6.355       6.151    
        5.928       5.723       5.535       5.379       5.272       5.158       4.994       4.789       4.589       4.390    
        4.192       4.012       3.818       3.564       3.308       3.019       2.756       2.526       2.293       2.059    
        1.846       1.621       1.413       1.225       1.035      0.8667      0.6710      0.4206      0.1982       0.000    
  34    10.00       9.938       9.901       9.843       9.731       9.566       9.360       9.150       8.879       8.541    
        8.197       7.864       7.586       7.342       7.164       7.037       6.864       6.673       6.449       6.256    
        6.055       5.815       5.626       5.480       5.372       5.244       5.057       4.873       4.662       4.445    
        4.279       4.110       3.936       3.683       3.410       3.141       2.899       2.693       2.450       2.213    
        2.007       1.799       1.577       1.384       1.181      0.9821      0.7310      0.4701      0.2478       0.000    
  35    10.00       9.949       9.906       9.835       9.698       9.525       9.376       9.198       8.952       8.591    
        8.226       7.922       7.644       7.431       7.275       7.133       6.956       6.746       6.533       6.320    
        6.139       5.927       5.735       5.598       5.481       5.354       5.150       4.925       4.704       4.498    
        4.369       4.214       4.024       3.830       3.592       3.302       3.052       2.881       2.632       2.360    
        2.164       1.955       1.744       1.553       1.324       1.102      0.8475      0.5659      0.2828       0.000    
  36    10.00       9.947       9.887       9.808       9.673       9.509       9.375       9.213       8.968       8.635    
        8.258       7.931       7.722       7.547       7.401       7.228       7.018       6.816       6.593       6.339    
        6.147       5.982       5.815       5.696       5.580       5.428       5.218       4.983       4.758       4.561    
        4.428       4.297       4.116       3.929       3.723       3.458       3.202       3.009       2.788       2.492    
        2.271       2.060       1.844       1.685       1.464       1.216      0.9612      0.6661      0.3389       0.000    
  37    10.00       9.931       9.866       9.780       9.645       9.497       9.348       9.192       8.970       8.615    
        8.236       7.966       7.833       7.668       7.477       7.307       7.073       6.832       6.570       6.321    
        6.164       6.032       5.876       5.755       5.622       5.449       5.253       5.016       4.811       4.651    
        4.504       4.356       4.168       4.002       3.786       3.531       3.327       3.137       2.890       2.597    
        2.331       2.123       1.950       1.771       1.562       1.330       1.085      0.7532      0.4081       0.000    
  38    10.00       9.925       9.841       9.750       9.627       9.482       9.320       9.158       8.925       8.598    
        8.308       8.088       7.917       7.770       7.561       7.308       7.050       6.772       6.496       6.328    
        6.204       6.048       5.908       5.800       5.662       5.465       5.232       5.016       4.885       4.751    
        4.589       4.419       4.234       4.062       3.850       3.611       3.424       3.232       2.938       2.630    
        2.398       2.204       2.027       1.848       1.660       1.436       1.182      0.8628      0.4478       0.000    
  39    10.00       9.905       9.822       9.732       9.611       9.452       9.278       9.109       8.898       8.635    
        8.408       8.243       8.054       7.849       7.560       7.240       6.928       6.636       6.465       6.350    
        6.193       6.031       5.927       5.828       5.703       5.478       5.237       5.079       4.959       4.820    
        4.649       4.483       4.294       4.108       3.925       3.724       3.508       3.284       2.980       2.674    
        2.429       2.234       2.096       1.952       1.748       1.519       1.262      0.9151      0.4483       0.000    
  40    10.00       9.890       9.809       9.720       9.599       9.434       9.256       9.086       8.906       8.688    
        8.502       8.361       8.136       7.821       7.462       7.109       6.793       6.588       6.468       6.340    
        6.170       6.028       5.932       5.822       5.676       5.498       5.325       5.161       5.016       4.888    
        4.730       4.542       4.348       4.169       3.998       3.794       3.560       3.334       3.002       2.667    
        2.445       2.282       2.137       2.013       1.806       1.551       1.316      0.9513      0.4698       0.000    
  41    10.00       9.899       9.805       9.707       9.574       9.425       9.269       9.117       8.946       8.752    
        8.575       8.410       8.118       7.725       7.331       7.010       6.757       6.579       6.458       6.315    
        6.145       6.022       5.921       5.804       5.672       5.538       5.407       5.249       5.078       4.929    
        4.785       4.604       4.406       4.242       4.061       3.860       3.622       3.305       2.937       2.679    
        2.497       2.326       2.192       2.037       1.818       1.565       1.357       1.010      0.5173       0.000    
  42    10.00       9.903       9.798       9.709       9.593       9.454       9.300       9.131       8.979       8.831    
        8.625       8.338       7.975       7.573       7.219       6.969       6.749       6.580       6.442       6.272    
        6.115       6.003       5.901       5.815       5.698       5.597       5.474       5.296       5.114       4.978    
        4.848       4.653       4.439       4.284       4.129       3.904       3.597       3.218       2.890       2.692    
        2.547       2.401       2.235       2.033       1.806       1.602       1.391       1.052      0.5413       0.000    
  43    10.00       9.905       9.809       9.717       9.626       9.504       9.350       9.185       9.021       8.814    
        8.528       8.201       7.830       7.442       7.165       6.955       6.748       6.574       6.408       6.240    
        6.092       5.987       5.909       5.840       5.737       5.625       5.507       5.334       5.169       5.057    
        4.892       4.676       4.474       4.321       4.144       3.869       3.508       3.142       2.913       2.756    
        2.601       2.444       2.242       2.023       1.816       1.618       1.429       1.049      0.4726       0.000    
  44    10.00       9.899       9.812       9.733       9.633       9.540       9.410       9.212       8.994       8.714    
        8.426       8.081       7.676       7.393       7.177       6.946       6.721       6.525       6.346       6.196    
        6.089       6.003       5.927       5.856       5.767       5.654       5.515       5.378       5.249       5.107    
        4.949       4.754       4.525       4.309       4.101       3.820       3.444       3.126       2.942       2.790    
        2.642       2.468       2.265       2.070       1.853       1.634       1.386      0.8984      0.3971       0.000    
  45    10.00       9.899       9.828       9.737       9.643       9.560       9.375       9.151       8.897       8.622    
        8.379       7.968       7.590       7.378       7.160       6.909       6.656       6.456       6.298       6.188    
        6.110       6.033       5.954       5.867       5.773       5.669       5.553       5.435       5.330       5.185    
        4.995       4.786       4.555       4.294       4.057       3.752       3.398       3.147       2.995       2.842    
        2.650       2.449       2.271       2.095       1.905       1.669       1.251      0.7535      0.3817       0.000    
  46    10.00       9.917       9.841       9.745       9.642       9.487       9.293       9.108       8.877       8.606    
        8.258       7.881       7.577       7.313       7.090       6.843       6.591       6.435       6.315       6.213    
        6.141       6.069       5.976       5.873       5.779       5.687       5.592       5.487       5.381       5.248    
        5.072       4.854       4.597       4.302       3.972       3.643       3.384       3.212       3.043       2.867    
        2.646       2.437       2.260       2.118       1.914       1.585       1.122      0.7101      0.3608       0.000    
  47    10.00       9.935       9.865       9.765       9.588       9.402       9.235       9.078       8.871       8.534    
        8.160       7.808       7.516       7.294       7.055       6.782       6.565       6.425       6.331       6.246    
        6.169       6.087       5.995       5.893       5.799       5.719       5.635       5.530       5.409       5.278    
        5.123       4.929       4.599       4.208       3.897       3.653       3.427       3.280       3.125       2.880    
        2.617       2.397       2.231       2.116       1.860       1.467       1.042      0.6837      0.3510       0.000    
  48    10.00       9.943       9.869       9.720       9.542       9.387       9.210       9.051       8.831       8.477    
        8.068       7.749       7.513       7.248       6.971       6.725       6.562       6.425       6.334       6.272    
        6.195       6.096       5.995       5.906       5.831       5.763       5.682       5.567       5.424       5.271    
        5.110       4.890       4.549       4.227       3.954       3.712       3.500       3.334       3.133       2.841    
        2.562       2.385       2.246       2.030       1.688       1.336      0.9958      0.6889      0.3706       0.000    
  49    10.00       9.940       9.834       9.702       9.556       9.376       9.198       9.019       8.747       8.372    
        8.020       7.722       7.437       7.186       6.972       6.741       6.530       6.407       6.346       6.286    
        6.214       6.102       5.990       5.917       5.854       5.801       5.710       5.571       5.410       5.263    
        5.095       4.826       4.537       4.321       4.071       3.788       3.532       3.330       3.099       2.787    
        2.561       2.406       2.199       1.873       1.568       1.281      0.9848      0.6890      0.3695       0.000    
  50    10.00       9.933       9.823       9.687       9.555       9.387       9.188       8.965       8.678       8.382    
        8.014       7.641       7.377       7.177       6.996       6.735       6.501       6.409       6.355       6.295    
        6.223       6.108       5.993       5.921       5.869       5.819       5.716       5.558       5.394       5.255    
        5.083       4.805       4.581       4.388       4.126       3.845       3.577       3.301       2.985       2.723    
        2.607       2.430       2.112       1.784       1.557       1.279      0.9987      0.6750      0.3010       0.000    

 HEAD WILL BE SAVED ON UNIT   51 AT END OF TIME STEP  88, STRESS PERIOD    2

 DRAWDOWN WILL BE SAVED ON UNIT   52 AT END OF TIME STEP  88, STRESS PERIOD    2
1
  VOLUMETRIC BUDGET FOR ENTIRE MODEL AT END OF TIME STEP 88 IN STRESS PERIOD   2
  ------------------------------------------------------------------------------

     CUMULATIVE VOLUMES      L**3       RATES FOR THIS TIME STEP      L**3/T
     ------------------                 ------------------------

           IN:                                      IN:
           ---                                      ---
             STORAGE =       40642.1992               STORAGE =         385.1671
       CONSTANT HEAD =       55918.8203         CONSTANT HEAD =         687.5941
               WELLS =           0.0000                 WELLS =           0.0000

            TOTAL IN =       96561.0156              TOTAL IN =        1072.7612

          OUT:                                     OUT:
          ----                                     ----
             STORAGE =       9.4320E-03               STORAGE =           0.0000
       CONSTANT HEAD =       52561.0039         CONSTANT HEAD =         572.7617
               WELLS =       44000.0000                 WELLS =         500.0000

           TOTAL OUT =       96561.0156             TOTAL OUT =        1072.7617

            IN - OUT =           0.0000              IN - OUT =      -4.8828E-04

 PERCENT DISCREPANCY =           0.00     PERCENT DISCREPANCY =           0.00






          TIME SUMMARY AT END OF TIME STEP  88 IN STRESS PERIOD    2
                    SECONDS     MINUTES      HOURS       DAYS        YEARS
                    -----------------------------------------------------------
   TIME STEP LENGTH  86400.      1440.0      24.000      1.0000     2.73785E-03
 STRESS PERIOD TIME 7.60320E+06 1.26720E+05  2112.0      88.000     0.24093    
         TOTAL TIME 7.68960E+06 1.28160E+05  2136.0      89.000     0.24367    
1
 
 SOLVING FOR HEAD 

 OUTPUT CONTROL FOR STRESS PERIOD    2   TIME STEP  89
    SAVE HEAD FOR ALL LAYERS
    SAVE DRAWDOWN FOR ALL LAYERS
    SAVE BUDGET
    PRINT HEAD FOR ALL LAYERS
    PRINT BUDGET
 UBDSV1 SAVING "         STORAGE" ON UNIT  53 AT TIME STEP 89, STRESS PERIOD   2
 UBDSV2 SAVING "   CONSTANT HEAD" ON UNIT  53 AT TIME STEP 89, STRESS PERIOD   2
 UBDSV1 SAVING "FLOW RIGHT FACE " ON UNIT  53 AT TIME STEP 89, STRESS PERIOD   2
 UBDSV1 SAVING "FLOW FRONT FACE " ON UNIT  53 AT TIME STEP 89, STRESS PERIOD   2
1
              HEAD IN LAYER   1 AT END OF TIME STEP  89 IN STRESS PERIOD    2
  ---------------------------------------------------------------------------

            1           2           3           4           5           6           7           8           9          10
           11          12          13          14          15          16          17          18          19          20
           21          22          23          24          25          26          27          28          29          30
           31          32          33          34          35          36          37          38          39          40
           41          42          43          44          45          46          47          48          49          50
 ........................................................................................................................
   1    10.00       9.953       9.886       9.810       9.736       9.652       9.573       9.495       9.396       9.299    
        9.225       9.152       9.077       9.005       8.888       8.747       8.590       8.467       8.403       8.330    
        8.243       8.174       8.107       8.030       7.928       7.729       7.505       7.349       7.198       7.056    
        6.873       6.579       6.204       5.788       5.357       4.900       4.448       4.072       3.583       3.051    
        2.615       2.198       1.737       1.351       1.114      0.9135      0.7548      0.6399      0.4295       0.000    
   2    10.00       9.952       9.891       9.815       9.740       9.666       9.587       9.484       9.375       9.296    
        9.232       9.169       9.107       9.017       8.883       8.735       8.588       8.466       8.401       8.319    
        8.231       8.179       8.125       8.045       7.915       7.720       7.516       7.356       7.203       7.065    
        6.860       6.552       6.158       5.684       5.224       4.782       4.391       4.028       3.530       3.015    
        2.578       2.111       1.691       1.389       1.166      0.9941      0.7977      0.6228      0.3475       0.000    
   3    10.00       9.946       9.885       9.817       9.751       9.676       9.574       9.466       9.389       9.318    
        9.246       9.189       9.133       9.047       8.909       8.727       8.566       8.468       8.391       8.308    
        8.236       8.182       8.126       8.018       7.876       7.701       7.525       7.398       7.220       7.040    
        6.781       6.415       5.962       5.502       5.097       4.687       4.305       3.914       3.396       2.920    
        2.547       2.118       1.736       1.460       1.240       1.062      0.8296      0.5564      0.2523       0.000    
   4    10.00       9.946       9.886       9.820       9.745       9.658       9.553       9.470       9.404       9.331    
        9.267       9.220       9.158       9.059       8.926       8.732       8.564       8.471       8.386       8.311    
        8.234       8.166       8.094       7.980       7.840       7.683       7.522       7.365       7.206       7.001    
        6.674       6.187       5.704       5.355       5.022       4.600       4.142       3.684       3.270       2.914    
        2.567       2.171       1.813       1.566       1.319       1.093      0.8055      0.5002      0.2396       0.000    
   5    10.00       9.942       9.882       9.807       9.731       9.650       9.556       9.484       9.416       9.347    
        9.292       9.245       9.164       9.049       8.901       8.724       8.582       8.480       8.395       8.294    
        8.201       8.127       8.039       7.928       7.803       7.640       7.480       7.335       7.176       6.923    
        6.449       5.899       5.513       5.241       4.912       4.458       3.986       3.573       3.267       2.947    
        2.608       2.247       1.894       1.665       1.401       1.075      0.7328      0.4457      0.2242       0.000    
   6    10.00       9.933       9.862       9.800       9.731       9.642       9.563       9.501       9.430       9.365    
        9.312       9.256       9.153       9.022       8.893       8.744       8.601       8.483       8.370       8.252    
        8.158       8.071       7.994       7.894       7.733       7.573       7.444       7.297       7.073       6.687    
        6.160       5.660       5.340       5.108       4.809       4.360       3.894       3.552       3.295       3.007    
        2.702       2.386       2.028       1.722       1.372       1.014      0.6466      0.3842      0.2115       0.000    
   7    10.00       9.920       9.851       9.793       9.722       9.648       9.577       9.519       9.452       9.389    
        9.324       9.238       9.125       9.002       8.879       8.762       8.611       8.449       8.318       8.203    
        8.105       8.020       7.954       7.827       7.661       7.527       7.395       7.194       6.827       6.329    
        5.830       5.428       5.214       5.009       4.662       4.241       3.930       3.602       3.326       3.142    
        2.855       2.519       2.098       1.661       1.270      0.8789      0.5562      0.3866      0.1990       0.000    
   8    10.00       9.920       9.857       9.791       9.719       9.654       9.592       9.532       9.471       9.410    
        9.325       9.214       9.103       8.986       8.872       8.740       8.549       8.379       8.272       8.161    
        8.051       7.979       7.879       7.741       7.596       7.455       7.230       6.914       6.448       6.012    
        5.642       5.339       5.146       4.911       4.539       4.194       3.915       3.675       3.465       3.255    
        2.977       2.555       2.039       1.574       1.167      0.8214      0.5881      0.3782      0.1813       0.000    
   9    10.00       9.932       9.856       9.784       9.731       9.676       9.614       9.551       9.483       9.417    
        9.317       9.191       9.069       8.952       8.830       8.673       8.488       8.331       8.216       8.102    
        8.004       7.911       7.775       7.642       7.507       7.331       7.002       6.577       6.141       5.824    
        5.522       5.276       5.065       4.773       4.432       4.146       3.935       3.762       3.576       3.346    
        3.012       2.553       2.028       1.568       1.173      0.8385      0.5927      0.3811      0.1949       0.000    
  10    10.00       9.929       9.849       9.790       9.740       9.688       9.631       9.577       9.497       9.399    
        9.278       9.145       9.028       8.919       8.792       8.598       8.403       8.267       8.162       8.055    
        7.964       7.833       7.683       7.532       7.373       7.113       6.688       6.249       5.882       5.629    
        5.437       5.232       4.975       4.680       4.367       4.131       3.976       3.826       3.625       3.361    
        2.978       2.503       2.026       1.635       1.267      0.9211      0.6105      0.4045      0.2175       0.000    
  11    10.00       9.914       9.849       9.800       9.751       9.706       9.654       9.577       9.468       9.357    
        9.236       9.106       8.997       8.864       8.690       8.505       8.345       8.225       8.128       8.020    
        7.883       7.715       7.509       7.337       7.065       6.701       6.341       6.021       5.718       5.533    
        5.387       5.122       4.844       4.601       4.365       4.189       4.029       3.838       3.590       3.270    
        2.911       2.546       2.091       1.708       1.359       1.017      0.6849      0.3968      0.1665       0.000    
  12    10.00       9.917       9.857       9.805       9.763       9.716       9.656       9.547       9.420       9.314    
        9.201       9.064       8.932       8.772       8.620       8.449       8.295       8.191       8.083       7.932    
        7.700       7.448       7.205       6.962       6.599       6.326       6.126       5.814       5.566       5.433    
        5.267       5.018       4.793       4.571       4.406       4.239       4.039       3.806       3.505       3.186    
        2.885       2.557       2.120       1.744       1.417       1.060      0.7190      0.3735      0.1240       0.000    
  13    10.00       9.933       9.875       9.821       9.771       9.714       9.617       9.492       9.372       9.264    
        9.136       9.002       8.863       8.697       8.529       8.369       8.256       8.126       7.983       7.679    
        7.327       7.061       6.793       6.470       6.193       6.066       5.840       5.567       5.436       5.314    
        5.120       4.910       4.734       4.574       4.434       4.278       4.042       3.729       3.443       3.146    
        2.861       2.523       2.054       1.706       1.427       1.048      0.6590      0.3214      9.8392E-02   0.000    
  14    10.00       9.948       9.898       9.840       9.770       9.676       9.550       9.424       9.316       9.196    
        9.064       8.939       8.781       8.606       8.457       8.318       8.146       7.975       7.685       7.234    
        6.897       6.641       6.284       6.034       5.909       5.794       5.573       5.406       5.278       5.151    
        4.985       4.839       4.717       4.584       4.434       4.283       4.015       3.678       3.385       3.080    
        2.791       2.373       1.929       1.657       1.340       1.000      0.6574      0.2965      8.4454E-02   0.000    
  15    10.00       9.958       9.907       9.841       9.757       9.619       9.465       9.355       9.253       9.134    
        9.031       8.901       8.698       8.499       8.360       8.141       7.921       7.743       7.298       6.808    
        6.506       6.164       5.867       5.776       5.713       5.567       5.380       5.225       5.128       5.031    
        4.908       4.805       4.708       4.591       4.446       4.263       3.949       3.578       3.272       2.998    
        2.690       2.271       1.925       1.587       1.211      0.9131      0.5858      0.2710      9.1679E-02   0.000    
  16    10.00       9.965       9.909       9.827       9.704       9.539       9.402       9.314       9.224       9.104    
        8.979       8.786       8.531       8.339       8.139       7.886       7.740       7.375       6.753       6.328    
        6.066       5.777       5.674       5.624       5.504       5.316       5.171       5.097       5.055       4.974    
        4.872       4.779       4.697       4.578       4.403       4.152       3.795       3.480       3.243       2.960    
        2.605       2.195       1.825       1.457       1.136      0.8065      0.5240      0.2729      9.7440E-02   0.000    
  17    10.00       9.960       9.892       9.782       9.641       9.470       9.349       9.272       9.164       9.036    
        8.810       8.540       8.327       8.131       7.873       7.622       7.313       6.732       6.221       5.960    
        5.757       5.609       5.538       5.415       5.229       5.096       5.056       5.037       4.995       4.915    
        4.826       4.746       4.659       4.537       4.281       3.956       3.684       3.485       3.260       2.919    
        2.472       2.074       1.731       1.388       1.016      0.6713      0.4457      0.2472      0.1030       0.000    
  18    10.00       9.943       9.855       9.727       9.541       9.397       9.311       9.196       9.063       8.869    
        8.582       8.358       8.159       7.859       7.523       7.178       6.748       6.248       5.940       5.743    
        5.592       5.463       5.349       5.182       5.055       5.017       5.001       4.980       4.924       4.846    
        4.774       4.693       4.582       4.393       4.130       3.873       3.667       3.505       3.222       2.803    
        2.375       1.962       1.618       1.297      0.9408      0.6179      0.3762      0.2063      9.6318E-02   0.000    
  19    10.00       9.923       9.821       9.634       9.449       9.364       9.255       9.105       8.944       8.723    
        8.469       8.247       7.927       7.499       7.151       6.815       6.358       5.957       5.764       5.637    
        5.478       5.315       5.185       5.047       4.980       4.963       4.941       4.897       4.828       4.761    
        4.690       4.601       4.456       4.267       4.059       3.846       3.673       3.467       3.064       2.652    
        2.315       1.895       1.524       1.212      0.8628      0.5561      0.3381      0.1956      9.7964E-02   0.000    
  20    10.00       9.900       9.744       9.550       9.413       9.316       9.194       9.033       8.841       8.635    
        8.370       8.040       7.606       7.216       6.910       6.511       6.099       5.897       5.735       5.562    
        5.389       5.219       5.059       4.958       4.913       4.877       4.825       4.779       4.711       4.651    
        4.582       4.494       4.350       4.191       4.009       3.832       3.650       3.328       2.909       2.563    
        2.191       1.783       1.455       1.143      0.8194      0.4993      0.2936      0.1973      9.9690E-02   0.000    
  21    10.00       9.841       9.681       9.521       9.378       9.269       9.135       8.929       8.733       8.535    
        8.189       7.774       7.369       7.051       6.724       6.343       6.052       5.875       5.690       5.500    
        5.289       5.096       4.956       4.852       4.775       4.707       4.665       4.623       4.552       4.506    
        4.460       4.367       4.249       4.116       3.958       3.791       3.536       3.213       2.855       2.446    
        2.073       1.692       1.408       1.123      0.7123      0.4220      0.3009      0.2197      0.1056       0.000    
  22    10.00       9.818       9.628       9.473       9.351       9.220       9.023       8.817       8.644       8.381    
        8.017       7.585       7.238       6.974       6.617       6.266       6.021       5.840       5.656       5.428    
        5.184       4.988       4.806       4.646       4.542       4.492       4.458       4.402       4.379       4.352    
        4.318       4.250       4.165       4.044       3.902       3.742       3.478       3.162       2.741       2.340    
        2.019       1.675       1.360      0.9378      0.5876      0.4234      0.3186      0.2120      8.4271E-02   0.000    
  23    10.00       9.776       9.591       9.462       9.329       9.133       8.912       8.751       8.532       8.259    
        7.890       7.507       7.239       6.905       6.520       6.216       6.009       5.842       5.635       5.361    
        5.101       4.870       4.629       4.342       4.087       4.037       4.109       4.144       4.193       4.210    
        4.198       4.156       4.084       3.989       3.855       3.690       3.446       3.054       2.614       2.286    
        1.979       1.588       1.136      0.7685      0.5741      0.4351      0.3186      0.2023      9.4254E-02   0.000    
  24    10.00       9.745       9.611       9.463       9.274       9.059       8.884       8.710       8.495       8.181    
        7.843       7.544       7.249       6.847       6.442       6.201       6.029       5.856       5.605       5.329    
        5.071       4.806       4.436       3.776       2.783       3.113       3.566       3.852       4.006       4.070    
        4.091       4.068       4.023       3.926       3.797       3.630       3.329       2.917       2.546       2.199    
        1.826       1.411       1.011      0.7352      0.5726      0.4334      0.3119      0.2364      0.1302       0.000    
  25    10.00       9.778       9.637       9.457       9.259       9.067       8.888       8.722       8.460       8.148    
        7.864       7.577       7.216       6.776       6.461       6.241       6.050       5.846       5.612       5.355    
        5.077       4.812       4.137       2.733     -0.4507       2.127       3.102       3.591       3.852       3.973    
        4.010       4.004       3.958       3.847       3.712       3.508       3.197       2.803       2.468       2.093    
        1.664       1.273      0.9449      0.7300      0.5969      0.4670      0.3414      0.2517      0.1643       0.000    
  26    10.00       9.810       9.677       9.484       9.280       9.111       8.927       8.718       8.449       8.206    
        7.961       7.579       7.125       6.751       6.521       6.323       6.094       5.830       5.582       5.362    
        5.147       4.855       4.232       3.210       2.138       2.658       3.221       3.578       3.799       3.929    
        3.966       3.957       3.895       3.788       3.657       3.437       3.032       2.667       2.384       1.925    
        1.457       1.133      0.9389      0.7934      0.6516      0.5071      0.3762      0.2757      0.1646       0.000    
  27    10.00       9.852       9.691       9.526       9.345       9.150       8.967       8.765       8.525       8.293    
        7.965       7.517       7.123       6.819       6.616       6.392       6.093       5.802       5.600       5.425    
        5.244       4.942       4.474       3.908       3.306       3.322       3.520       3.706       3.850       3.930    
        3.949       3.932       3.871       3.760       3.584       3.240       2.856       2.568       2.130       1.674    
        1.336       1.122      0.9797      0.8565      0.7257      0.5589      0.4027      0.3015      0.2026       0.000    
  28    10.00       9.866       9.729       9.573       9.409       9.225       9.036       8.833       8.607       8.339    
        7.940       7.533       7.192       6.899       6.688       6.462       6.206       5.920       5.650       5.475    
        5.313       5.096       4.783       4.357       3.974       3.802       3.812       3.898       3.935       3.964    
        3.958       3.926       3.853       3.694       3.431       3.069       2.738       2.341       1.905       1.598    
        1.348       1.170       1.028      0.9060      0.7713      0.6117      0.4568      0.3433      0.2093       0.000    
  29    10.00       9.873       9.743       9.627       9.469       9.302       9.120       8.916       8.678       8.321    
        7.929       7.574       7.251       7.008       6.766       6.522       6.288       6.058       5.795       5.567    
        5.392       5.209       4.992       4.729       4.381       4.194       4.122       4.092       4.075       4.039    
        3.989       3.919       3.822       3.607       3.286       2.951       2.598       2.192       1.855       1.629    
        1.422       1.225       1.070      0.9510      0.8197      0.6560      0.4961      0.3634      0.2119       0.000    
  30    10.00       9.884       9.778       9.675       9.539       9.385       9.224       8.998       8.702       8.340    
        7.936       7.577       7.307       7.068       6.830       6.593       6.397       6.198       5.960       5.715    
        5.506       5.336       5.148       4.958       4.735       4.532       4.450       4.320       4.246       4.143    
        4.027       3.906       3.756       3.526       3.251       2.926       2.556       2.176       1.923       1.712    
        1.477       1.283       1.134      0.9907      0.8428      0.6976      0.5297      0.3794      0.2292       0.000    
  31    10.00       9.904       9.812       9.717       9.618       9.498       9.323       9.059       8.718       8.343    
        7.955       7.620       7.364       7.121       6.909       6.690       6.483       6.331       6.102       5.866    
        5.664       5.487       5.321       5.148       5.007       4.846       4.686       4.539       4.388       4.239    
        4.063       3.889       3.728       3.532       3.253       2.909       2.550       2.230       2.022       1.832    
        1.587       1.362       1.188       1.036      0.8884      0.7341      0.5652      0.4062      0.2236       0.000    
  32    10.00       9.920       9.850       9.767       9.671       9.563       9.391       9.095       8.777       8.435    
        8.026       7.679       7.424       7.196       6.983       6.800       6.615       6.423       6.237       6.012    
        5.799       5.607       5.446       5.287       5.156       5.043       4.866       4.695       4.502       4.298    
        4.104       3.920       3.734       3.539       3.273       2.958       2.654       2.370       2.146       1.932    
        1.705       1.469       1.282       1.103      0.9332      0.7928      0.6194      0.4083      0.2030       0.000    
  33    10.00       9.931       9.874       9.808       9.716       9.594       9.378       9.092       8.827       8.513    
        8.117       7.773       7.511       7.264       7.068       6.909       6.745       6.554       6.347       6.142    
        5.919       5.714       5.526       5.370       5.263       5.149       4.985       4.780       4.581       4.382    
        4.185       4.006       3.812       3.559       3.303       3.014       2.752       2.523       2.290       2.056    
        1.844       1.619       1.412       1.224       1.034      0.8658      0.6703      0.4202      0.1980       0.000    
  34    10.00       9.938       9.900       9.843       9.730       9.565       9.358       9.148       8.876       8.537    
        8.192       7.859       7.580       7.335       7.157       7.030       6.857       6.665       6.441       6.248    
        6.047       5.806       5.618       5.472       5.364       5.236       5.049       4.865       4.655       4.439    
        4.273       4.104       3.931       3.678       3.406       3.137       2.896       2.690       2.447       2.211    
        2.004       1.797       1.576       1.383       1.179      0.9812      0.7304      0.4697      0.2476       0.000    
  35    10.00       9.949       9.906       9.835       9.698       9.524       9.374       9.196       8.949       8.587    
        8.221       7.917       7.639       7.425       7.269       7.126       6.949       6.739       6.525       6.312    
        6.131       5.919       5.727       5.590       5.473       5.346       5.142       4.918       4.698       4.492    
        4.364       4.209       4.019       3.826       3.588       3.298       3.049       2.878       2.630       2.358    
        2.162       1.953       1.742       1.552       1.323       1.101      0.8469      0.5655      0.2826       0.000    
  36    10.00       9.947       9.887       9.807       9.672       9.508       9.374       9.211       8.966       8.631    
        8.253       7.926       7.716       7.541       7.395       7.222       7.011       6.809       6.586       6.331    
        6.140       5.975       5.808       5.689       5.573       5.421       5.212       4.977       4.753       4.556    
        4.423       4.293       4.112       3.925       3.720       3.455       3.199       3.006       2.786       2.490    
        2.269       2.058       1.842       1.684       1.463       1.216      0.9605      0.6656      0.3386       0.000    
  37    10.00       9.931       9.866       9.780       9.644       9.495       9.346       9.190       8.968       8.612    
        8.232       7.961       7.828       7.662       7.471       7.301       7.067       6.826       6.564       6.315    
        6.158       6.025       5.870       5.749       5.616       5.443       5.248       5.011       4.807       4.647    
        4.500       4.352       4.165       3.998       3.783       3.528       3.324       3.135       2.888       2.595    
        2.329       2.122       1.948       1.770       1.561       1.329       1.084      0.7527      0.4079       0.000    
  38    10.00       9.925       9.841       9.750       9.626       9.481       9.318       9.156       8.923       8.595    
        8.305       8.084       7.913       7.765       7.556       7.302       7.044       6.767       6.490       6.323    
        6.198       6.043       5.902       5.794       5.657       5.460       5.228       5.012       4.881       4.747    
        4.585       4.415       4.231       4.059       3.847       3.608       3.422       3.230       2.936       2.628    
        2.396       2.202       2.025       1.847       1.659       1.435       1.181      0.8623      0.4475       0.000    
  39    10.00       9.905       9.821       9.732       9.611       9.451       9.277       9.108       8.896       8.632    
        8.405       8.240       8.050       7.845       7.555       7.235       6.923       6.631       6.460       6.345    
        6.188       6.026       5.923       5.823       5.698       5.474       5.234       5.075       4.955       4.817    
        4.645       4.480       4.291       4.105       3.923       3.721       3.506       3.282       2.978       2.672    
        2.428       2.233       2.094       1.951       1.747       1.518       1.262      0.9146      0.4480       0.000    
  40    10.00       9.890       9.809       9.720       9.599       9.433       9.255       9.084       8.904       8.686    
        8.499       8.358       8.132       7.817       7.458       7.105       6.789       6.584       6.464       6.335    
        6.166       6.024       5.928       5.818       5.672       5.494       5.322       5.157       5.013       4.884    
        4.726       4.539       4.345       4.167       3.995       3.791       3.558       3.331       3.000       2.666    
        2.444       2.280       2.136       2.012       1.806       1.551       1.315      0.9508      0.4696       0.000    
  41    10.00       9.899       9.804       9.706       9.573       9.424       9.268       9.116       8.944       8.750    
        8.573       8.407       8.115       7.722       7.327       7.007       6.753       6.575       6.454       6.311    
        6.141       6.018       5.918       5.800       5.669       5.534       5.404       5.246       5.074       4.926    
        4.782       4.601       4.403       4.239       4.059       3.858       3.619       3.303       2.936       2.677    
        2.496       2.325       2.191       2.036       1.817       1.564       1.356       1.009      0.5170       0.000    
  42    10.00       9.903       9.798       9.708       9.593       9.453       9.299       9.130       8.977       8.829    
        8.623       8.336       7.973       7.570       7.216       6.966       6.746       6.577       6.438       6.268    
        6.112       5.999       5.898       5.811       5.695       5.593       5.471       5.293       5.111       4.976    
        4.845       4.650       4.436       4.282       4.127       3.901       3.595       3.217       2.889       2.690    
        2.545       2.400       2.234       2.032       1.805       1.601       1.391       1.051      0.5411       0.000    
  43    10.00       9.904       9.809       9.717       9.626       9.503       9.349       9.184       9.019       8.812    
        8.526       8.198       7.828       7.440       7.162       6.952       6.744       6.570       6.405       6.237    
        6.089       5.984       5.905       5.837       5.734       5.622       5.504       5.331       5.166       5.054    
        4.889       4.674       4.472       4.319       4.141       3.866       3.506       3.140       2.911       2.754    
        2.600       2.443       2.241       2.022       1.815       1.618       1.428       1.048      0.4724       0.000    
  44    10.00       9.899       9.812       9.732       9.633       9.539       9.409       9.211       8.993       8.712    
        8.424       8.079       7.674       7.391       7.174       6.943       6.718       6.522       6.343       6.193    
        6.086       6.000       5.924       5.853       5.764       5.651       5.513       5.375       5.246       5.104    
        4.946       4.751       4.523       4.307       4.099       3.818       3.442       3.124       2.941       2.788    
        2.640       2.467       2.264       2.069       1.852       1.633       1.386      0.8979      0.3969       0.000    
  45    10.00       9.899       9.827       9.737       9.643       9.560       9.374       9.150       8.896       8.620    
        8.377       7.966       7.588       7.376       7.157       6.906       6.653       6.454       6.295       6.185    
        6.108       6.030       5.951       5.865       5.770       5.666       5.550       5.432       5.327       5.182    
        4.993       4.784       4.553       4.291       4.055       3.750       3.396       3.145       2.993       2.841    
        2.649       2.448       2.270       2.094       1.904       1.669       1.250      0.7531      0.3815       0.000    
  46    10.00       9.917       9.840       9.745       9.641       9.487       9.292       9.107       8.876       8.605    
        8.257       7.879       7.575       7.310       7.087       6.840       6.589       6.432       6.312       6.210    
        6.138       6.067       5.973       5.870       5.776       5.684       5.589       5.484       5.379       5.246    
        5.070       4.852       4.595       4.300       3.970       3.641       3.382       3.211       3.042       2.866    
        2.645       2.436       2.259       2.117       1.913       1.585       1.122      0.7098      0.3607       0.000    
  47    10.00       9.935       9.865       9.765       9.588       9.401       9.235       9.077       8.870       8.533    
        8.158       7.806       7.514       7.292       7.053       6.779       6.562       6.423       6.328       6.244    
        6.166       6.084       5.992       5.890       5.797       5.716       5.632       5.528       5.407       5.275    
        5.120       4.927       4.597       4.206       3.895       3.652       3.426       3.278       3.123       2.879    
        2.616       2.396       2.230       2.115       1.859       1.467       1.042      0.6834      0.3508       0.000    
  48    10.00       9.943       9.869       9.720       9.541       9.387       9.209       9.050       8.830       8.475    
        8.066       7.748       7.511       7.246       6.968       6.723       6.559       6.423       6.332       6.269    
        6.192       6.093       5.992       5.904       5.828       5.760       5.679       5.564       5.421       5.268    
        5.108       4.887       4.546       4.225       3.952       3.710       3.499       3.332       3.132       2.840    
        2.561       2.384       2.245       2.029       1.687       1.336      0.9954      0.6886      0.3705       0.000    
  49    10.00       9.940       9.834       9.701       9.555       9.375       9.197       9.018       8.746       8.371    
        8.018       7.720       7.435       7.184       6.970       6.739       6.527       6.404       6.344       6.284    
        6.212       6.100       5.987       5.914       5.852       5.798       5.707       5.569       5.407       5.261    
        5.093       4.823       4.535       4.319       4.069       3.786       3.530       3.328       3.097       2.786    
        2.560       2.405       2.198       1.872       1.568       1.280      0.9844      0.6887      0.3694       0.000    
  50    10.00       9.932       9.822       9.686       9.554       9.386       9.187       8.964       8.677       8.381    
        8.013       7.639       7.375       7.175       6.994       6.733       6.499       6.407       6.353       6.292    
        6.220       6.105       5.990       5.918       5.866       5.816       5.714       5.555       5.392       5.252    
        5.080       4.802       4.579       4.386       4.124       3.843       3.576       3.300       2.984       2.722    
        2.605       2.429       2.111       1.783       1.556       1.278      0.9983      0.6747      0.3008       0.000    

 HEAD WILL BE SAVED ON UNIT   51 AT END OF TIME STEP  89, STRESS PERIOD    2

 DRAWDOWN WILL BE SAVED ON UNIT   52 AT END OF TIME STEP  89, STRESS PERIOD    2
1
  VOLUMETRIC BUDGET FOR ENTIRE MODEL AT END OF TIME STEP 89 IN STRESS PERIOD   2
  ------------------------------------------------------------------------------

     CUMULATIVE VOLUMES      L**3       RATES FOR THIS TIME STEP      L**3/T
     ------------------                 ------------------------

           IN:                                      IN:
           ---                                      ---
             STORAGE =       41025.2422               STORAGE =         383.0421
       CONSTANT HEAD =       56607.9141         CONSTANT HEAD =         689.0925
               WELLS =           0.0000                 WELLS =           0.0000

            TOTAL IN =       97633.1562              TOTAL IN =        1072.1345

          OUT:                                     OUT:
          ----                                     ----
             STORAGE =       9.4320E-03               STORAGE =           0.0000
       CONSTANT HEAD =       53133.1406         CONSTANT HEAD =         572.1353
               WELLS =       44500.0000                 WELLS =         500.0000

           TOTAL OUT =       97633.1484             TOTAL OUT =        1072.1353

            IN - OUT =       7.8125E-03              IN - OUT =      -7.3242E-04

 PERCENT DISCREPANCY =           0.00     PERCENT DISCREPANCY =           0.00






          TIME SUMMARY AT END OF TIME STEP  89 IN STRESS PERIOD    2
                    SECONDS     MINUTES      HOURS       DAYS        YEARS
                    -----------------------------------------------------------
   TIME STEP LENGTH  86400.      1440.0      24.000      1.0000     2.73785E-03
 STRESS PERIOD TIME 7.68960E+06 1.28160E+05  2136.0      89.000     0.24367    
         TOTAL TIME 7.77600E+06 1.29600E+05  2160.0      90.000     0.24641    
1
 
 SOLVING FOR HEAD 

 OUTPUT CONTROL FOR STRESS PERIOD    2   TIME STEP  90
    SAVE HEAD FOR ALL LAYERS
    SAVE DRAWDOWN FOR ALL LAYERS
    SAVE BUDGET
    PRINT HEAD FOR ALL LAYERS
    PRINT BUDGET
 UBDSV1 SAVING "         STORAGE" ON UNIT  53 AT TIME STEP 90, STRESS PERIOD   2
 UBDSV2 SAVING "   CONSTANT HEAD" ON UNIT  53 AT TIME STEP 90, STRESS PERIOD   2
 UBDSV1 SAVING "FLOW RIGHT FACE " ON UNIT  53 AT TIME STEP 90, STRESS PERIOD   2
 UBDSV1 SAVING "FLOW FRONT FACE " ON UNIT  53 AT TIME STEP 90, STRESS PERIOD   2
1
              HEAD IN LAYER   1 AT END OF TIME STEP  90 IN STRESS PERIOD    2
  ---------------------------------------------------------------------------

            1           2           3           4           5           6           7           8           9          10
           11          12          13          14          15          16          17          18          19          20
           21          22          23          24          25          26          27          28          29          30
           31          32          33          34          35          36          37          38          39          40
           41          42          43          44          45          46          47          48          49          50
 ........................................................................................................................
   1    10.00       9.953       9.886       9.810       9.736       9.652       9.572       9.494       9.395       9.298    
        9.223       9.150       9.075       9.003       8.885       8.744       8.587       8.463       8.400       8.326    
        8.239       8.170       8.103       8.026       7.925       7.725       7.501       7.345       7.194       7.052    
        6.868       6.575       6.200       5.784       5.353       4.896       4.444       4.069       3.580       3.048    
        2.612       2.196       1.735       1.350       1.113      0.9125      0.7540      0.6392      0.4290       0.000    
   2    10.00       9.952       9.891       9.814       9.739       9.665       9.586       9.482       9.374       9.295    
        9.230       9.167       9.105       9.015       8.880       8.733       8.585       8.463       8.397       8.315    
        8.228       8.176       8.121       8.041       7.911       7.716       7.512       7.352       7.199       7.061    
        6.856       6.548       6.154       5.679       5.220       4.778       4.387       4.025       3.527       3.012    
        2.576       2.109       1.689       1.387       1.165      0.9931      0.7968      0.6221      0.3471       0.000    
   3    10.00       9.945       9.885       9.817       9.751       9.675       9.573       9.464       9.388       9.316    
        9.244       9.187       9.132       9.044       8.907       8.725       8.563       8.465       8.388       8.304    
        8.233       8.179       8.122       8.014       7.872       7.697       7.521       7.394       7.216       7.036    
        6.777       6.411       5.958       5.497       5.093       4.683       4.301       3.911       3.393       2.917    
        2.544       2.116       1.734       1.458       1.239       1.061      0.8287      0.5558      0.2520       0.000    
   4    10.00       9.945       9.886       9.820       9.744       9.657       9.552       9.469       9.403       9.329    
        9.266       9.218       9.156       9.057       8.923       8.729       8.561       8.468       8.383       8.308    
        8.231       8.163       8.091       7.976       7.836       7.679       7.518       7.361       7.202       6.997    
        6.670       6.182       5.700       5.351       5.017       4.596       4.138       3.680       3.267       2.911    
        2.564       2.169       1.811       1.564       1.318       1.092      0.8047      0.4996      0.2394       0.000    
   5    10.00       9.941       9.882       9.806       9.731       9.649       9.555       9.483       9.415       9.346    
        9.291       9.244       9.162       9.047       8.898       8.721       8.579       8.477       8.392       8.291    
        8.197       8.124       8.035       7.924       7.799       7.636       7.475       7.331       7.171       6.918    
        6.444       5.894       5.508       5.237       4.907       4.454       3.982       3.569       3.264       2.944    
        2.605       2.244       1.892       1.663       1.399       1.074      0.7320      0.4452      0.2239       0.000    
   6    10.00       9.933       9.862       9.800       9.730       9.642       9.562       9.500       9.428       9.363    
        9.311       9.254       9.151       9.020       8.890       8.742       8.598       8.480       8.367       8.248    
        8.155       8.067       7.990       7.890       7.729       7.569       7.440       7.292       7.069       6.682    
        6.155       5.655       5.334       5.102       4.804       4.355       3.890       3.548       3.291       3.004    
        2.699       2.384       2.025       1.720       1.370       1.012      0.6459      0.3838      0.2113       0.000    
   7    10.00       9.920       9.851       9.793       9.721       9.647       9.576       9.518       9.451       9.387    
        9.323       9.236       9.123       9.000       8.876       8.759       8.608       8.446       8.315       8.199    
        8.101       8.016       7.950       7.822       7.657       7.523       7.391       7.189       6.822       6.324    
        5.824       5.422       5.209       5.003       4.657       4.236       3.925       3.598       3.322       3.138    
        2.851       2.516       2.096       1.660       1.269      0.8778      0.5555      0.3861      0.1988       0.000    
   8    10.00       9.919       9.857       9.791       9.719       9.653       9.591       9.531       9.470       9.409    
        9.323       9.213       9.101       8.984       8.869       8.737       8.546       8.376       8.268       8.157    
        8.047       7.975       7.875       7.736       7.591       7.451       7.225       6.909       6.442       6.006    
        5.636       5.333       5.140       4.905       4.534       4.189       3.910       3.670       3.461       3.251    
        2.973       2.552       2.037       1.572       1.166      0.8204      0.5873      0.3777      0.1811       0.000    
   9    10.00       9.932       9.856       9.783       9.730       9.675       9.613       9.550       9.481       9.415    
        9.316       9.189       9.067       8.950       8.827       8.670       8.484       8.328       8.212       8.098    
        8.000       7.907       7.771       7.638       7.502       7.326       6.997       6.571       6.134       5.818    
        5.516       5.270       5.059       4.767       4.426       4.140       3.930       3.757       3.571       3.342    
        3.008       2.549       2.025       1.566       1.172      0.8374      0.5919      0.3806      0.1947       0.000    
  10    10.00       9.929       9.849       9.790       9.740       9.687       9.630       9.576       9.496       9.398    
        9.277       9.143       9.026       8.916       8.789       8.595       8.400       8.264       8.158       8.051    
        7.960       7.829       7.678       7.527       7.368       7.108       6.682       6.243       5.875       5.622    
        5.430       5.226       4.968       4.674       4.361       4.126       3.970       3.821       3.620       3.356    
        2.974       2.500       2.023       1.632       1.266      0.9199      0.6097      0.4039      0.2172       0.000    
  11    10.00       9.914       9.849       9.800       9.751       9.705       9.653       9.576       9.467       9.356    
        9.234       9.104       8.995       8.861       8.687       8.502       8.341       8.221       8.124       8.016    
        7.878       7.710       7.504       7.331       7.060       6.695       6.334       6.014       5.711       5.526    
        5.380       5.115       4.837       4.595       4.358       4.183       4.024       3.833       3.585       3.266    
        2.907       2.543       2.088       1.705       1.357       1.016      0.6839      0.3963      0.1663       0.000    
  12    10.00       9.917       9.856       9.804       9.763       9.715       9.655       9.546       9.419       9.312    
        9.199       9.062       8.929       8.769       8.616       8.445       8.291       8.187       8.079       7.928    
        7.695       7.443       7.199       6.956       6.593       6.319       6.119       5.807       5.559       5.426    
        5.260       5.011       4.786       4.564       4.400       4.232       4.033       3.801       3.500       3.182    
        2.881       2.554       2.116       1.741       1.415       1.059      0.7180      0.3730      0.1238       0.000    
  13    10.00       9.932       9.875       9.820       9.770       9.713       9.616       9.491       9.371       9.262    
        9.133       8.999       8.860       8.694       8.525       8.365       8.252       8.122       7.978       7.674    
        7.321       7.055       6.786       6.462       6.186       6.058       5.833       5.559       5.428       5.306    
        5.112       4.902       4.726       4.567       4.427       4.271       4.035       3.724       3.438       3.141    
        2.856       2.519       2.051       1.704       1.424       1.047      0.6580      0.3209      9.8246E-02   0.000    
  14    10.00       9.948       9.898       9.839       9.770       9.675       9.549       9.423       9.314       9.193    
        9.061       8.936       8.778       8.603       8.453       8.314       8.141       7.970       7.680       7.228    
        6.890       6.634       6.277       6.026       5.901       5.786       5.564       5.398       5.270       5.143    
        4.976       4.831       4.710       4.576       4.427       4.276       4.008       3.672       3.379       3.075    
        2.787       2.369       1.926       1.655       1.338      0.9986      0.6564      0.2960      8.4322E-02   0.000    
  15    10.00       9.958       9.906       9.840       9.756       9.618       9.464       9.353       9.251       9.132    
        9.028       8.898       8.695       8.495       8.356       8.137       7.916       7.737       7.292       6.800    
        6.498       6.156       5.858       5.768       5.705       5.559       5.371       5.216       5.119       5.023    
        4.900       4.797       4.700       4.583       4.438       4.255       3.943       3.572       3.266       2.993    
        2.686       2.267       1.922       1.584       1.209      0.9116      0.5848      0.2705      9.1529E-02   0.000    
  16    10.00       9.965       9.909       9.827       9.703       9.538       9.400       9.312       9.222       9.101    
        8.976       8.783       8.527       8.334       8.134       7.881       7.734       7.369       6.745       6.319    
        6.057       5.768       5.665       5.615       5.496       5.307       5.162       5.088       5.046       4.965    
        4.863       4.771       4.688       4.570       4.395       4.145       3.788       3.474       3.238       2.955    
        2.600       2.192       1.822       1.455       1.134      0.8051      0.5231      0.2724      9.7275E-02   0.000    
  17    10.00       9.960       9.892       9.782       9.640       9.469       9.347       9.270       9.161       9.033    
        8.806       8.536       8.322       8.126       7.867       7.615       7.306       6.724       6.213       5.951    
        5.748       5.599       5.529       5.406       5.219       5.087       5.047       5.028       4.986       4.906    
        4.818       4.738       4.651       4.529       4.273       3.949       3.677       3.478       3.253       2.913    
        2.468       2.071       1.728       1.386       1.014      0.6701      0.4449      0.2468      0.1028       0.000    
  18    10.00       9.942       9.854       9.726       9.539       9.395       9.309       9.193       9.060       8.866    
        8.578       8.353       8.154       7.853       7.517       7.171       6.740       6.240       5.931       5.734    
        5.582       5.454       5.339       5.172       5.046       5.007       4.991       4.971       4.914       4.837    
        4.765       4.684       4.574       4.384       4.122       3.866       3.659       3.498       3.216       2.797    
        2.371       1.959       1.615       1.294      0.9391      0.6168      0.3755      0.2059      9.6148E-02   0.000    
  19    10.00       9.923       9.821       9.633       9.447       9.362       9.253       9.102       8.940       8.719    
        8.464       8.242       7.921       7.492       7.144       6.807       6.349       5.948       5.755       5.628    
        5.468       5.305       5.175       5.037       4.970       4.953       4.931       4.888       4.818       4.752    
        4.681       4.592       4.447       4.258       4.051       3.838       3.666       3.460       3.057       2.647    
        2.311       1.891       1.521       1.209      0.8612      0.5550      0.3375      0.1953      9.7789E-02   0.000    
  20    10.00       9.899       9.743       9.548       9.411       9.314       9.192       9.030       8.837       8.631    
        8.365       8.034       7.599       7.209       6.903       6.503       6.090       5.888       5.726       5.552    
        5.379       5.209       5.049       4.948       4.903       4.867       4.815       4.770       4.701       4.641    
        4.572       4.484       4.341       4.182       4.000       3.824       3.643       3.321       2.903       2.558    
        2.186       1.780       1.452       1.141      0.8179      0.4984      0.2931      0.1970      9.9511E-02   0.000    
  21    10.00       9.841       9.680       9.520       9.376       9.266       9.132       8.925       8.729       8.530    
        8.184       7.768       7.362       7.043       6.716       6.335       6.042       5.866       5.680       5.491    
        5.280       5.086       4.946       4.842       4.765       4.697       4.655       4.613       4.542       4.496    
        4.450       4.358       4.240       4.107       3.950       3.783       3.528       3.206       2.848       2.441    
        2.069       1.689       1.406       1.121      0.7110      0.4212      0.3004      0.2193      0.1054       0.000    
  22    10.00       9.817       9.627       9.471       9.349       9.217       9.020       8.813       8.639       8.376    
        8.011       7.578       7.231       6.966       6.608       6.257       6.012       5.830       5.646       5.418    
        5.174       4.978       4.796       4.635       4.532       4.482       4.448       4.391       4.368       4.342    
        4.308       4.240       4.155       4.035       3.893       3.733       3.470       3.155       2.735       2.335    
        2.015       1.671       1.358      0.9360      0.5865      0.4226      0.3180      0.2117      8.4125E-02   0.000    
  23    10.00       9.776       9.590       9.460       9.327       9.130       8.908       8.747       8.527       8.253    
        7.884       7.499       7.231       6.897       6.512       6.207       5.999       5.833       5.625       5.351    
        5.091       4.860       4.619       4.332       4.077       4.026       4.099       4.133       4.182       4.200    
        4.187       4.146       4.075       3.980       3.846       3.681       3.438       3.047       2.609       2.281    
        1.975       1.584       1.133      0.7671      0.5731      0.4343      0.3181      0.2020      9.4095E-02   0.000    
  24    10.00       9.744       9.610       9.461       9.271       9.056       8.881       8.705       8.490       8.175    
        7.836       7.537       7.241       6.839       6.433       6.192       6.020       5.847       5.596       5.319    
        5.061       4.796       4.426       3.766       2.772       3.102       3.555       3.841       3.995       4.059    
        4.081       4.058       4.013       3.917       3.787       3.621       3.321       2.910       2.541       2.194    
        1.823       1.408       1.009      0.7339      0.5716      0.4327      0.3114      0.2360      0.1300       0.000    
  25    10.00       9.777       9.635       9.455       9.256       9.063       8.884       8.718       8.455       8.142    
        7.857       7.570       7.208       6.768       6.452       6.232       6.040       5.836       5.602       5.345    
        5.067       4.802       4.127       2.722     -0.4623       2.116       3.091       3.580       3.841       3.962    
        4.000       3.994       3.948       3.838       3.703       3.499       3.189       2.796       2.463       2.088    
        1.660       1.270      0.9433      0.7287      0.5960      0.4662      0.3408      0.2513      0.1641       0.000    
  26    10.00       9.810       9.676       9.482       9.278       9.109       8.924       8.713       8.445       8.201    
        7.955       7.573       7.117       6.743       6.513       6.314       6.085       5.820       5.572       5.352    
        5.137       4.845       4.221       3.200       2.127       2.647       3.210       3.567       3.788       3.919    
        3.955       3.947       3.885       3.778       3.648       3.429       3.024       2.661       2.379       1.921    
        1.455       1.131      0.9373      0.7922      0.6505      0.5063      0.3756      0.2752      0.1644       0.000    
  27    10.00       9.852       9.690       9.525       9.343       9.147       8.964       8.761       8.521       8.288    
        7.959       7.510       7.116       6.811       6.607       6.383       6.084       5.793       5.590       5.415    
        5.234       4.932       4.463       3.898       3.295       3.311       3.509       3.696       3.839       3.919    
        3.939       3.922       3.861       3.751       3.575       3.232       2.850       2.562       2.125       1.671    
        1.334       1.120      0.9782      0.8552      0.7246      0.5581      0.4021      0.3010      0.2023       0.000    
  28    10.00       9.865       9.729       9.572       9.407       9.223       9.033       8.829       8.603       8.335    
        7.934       7.526       7.184       6.891       6.679       6.454       6.197       5.910       5.640       5.465    
        5.303       5.086       4.773       4.347       3.964       3.791       3.801       3.887       3.925       3.953    
        3.948       3.916       3.843       3.685       3.423       3.063       2.732       2.336       1.901       1.595    
        1.346       1.168       1.027      0.9046      0.7702      0.6108      0.4561      0.3428      0.2090       0.000    
  29    10.00       9.872       9.743       9.626       9.467       9.299       9.117       8.913       8.674       8.316    
        7.923       7.568       7.243       7.000       6.757       6.514       6.279       6.049       5.785       5.557    
        5.383       5.199       4.982       4.719       4.370       4.183       4.111       4.081       4.064       4.028    
        3.979       3.910       3.813       3.599       3.279       2.945       2.593       2.189       1.852       1.626    
        1.420       1.223       1.069      0.9496      0.8185      0.6550      0.4954      0.3628      0.2116       0.000    
  30    10.00       9.884       9.777       9.674       9.537       9.383       9.221       8.995       8.698       8.335    
        7.931       7.570       7.299       7.060       6.822       6.585       6.388       6.189       5.951       5.706    
        5.496       5.327       5.138       4.948       4.725       4.522       4.439       4.309       4.236       4.133    
        4.018       3.897       3.748       3.519       3.245       2.921       2.551       2.172       1.920       1.710    
        1.475       1.281       1.132      0.9893      0.8416      0.6966      0.5289      0.3788      0.2289       0.000    
  31    10.00       9.904       9.812       9.716       9.617       9.496       9.321       9.056       8.714       8.338    
        7.949       7.614       7.357       7.114       6.901       6.682       6.475       6.322       6.093       5.856    
        5.654       5.478       5.311       5.139       4.997       4.836       4.676       4.529       4.378       4.229    
        4.055       3.881       3.721       3.525       3.247       2.904       2.546       2.227       2.019       1.829    
        1.585       1.361       1.186       1.034      0.8872      0.7332      0.5645      0.4056      0.2233       0.000    
  32    10.00       9.919       9.849       9.766       9.670       9.562       9.389       9.092       8.774       8.431    
        8.021       7.673       7.418       7.189       6.976       6.792       6.607       6.415       6.229       6.003    
        5.790       5.598       5.437       5.278       5.147       5.033       4.856       4.686       4.493       4.290    
        4.097       3.913       3.728       3.533       3.268       2.953       2.650       2.366       2.143       1.929    
        1.703       1.467       1.280       1.102      0.9320      0.7918      0.6186      0.4078      0.2027       0.000    
  33    10.00       9.931       9.874       9.807       9.715       9.592       9.376       9.090       8.823       8.509    
        8.112       7.768       7.504       7.257       7.061       6.901       6.738       6.546       6.339       6.134    
        5.911       5.705       5.517       5.361       5.254       5.140       4.976       4.772       4.574       4.375    
        4.179       4.000       3.806       3.553       3.298       3.010       2.749       2.520       2.287       2.054    
        1.842       1.617       1.410       1.222       1.032      0.8648      0.6696      0.4197      0.1978       0.000    
  34    10.00       9.938       9.900       9.842       9.730       9.564       9.357       9.146       8.873       8.534    
        8.187       7.853       7.574       7.329       7.150       7.023       6.849       6.657       6.433       6.240    
        6.039       5.798       5.609       5.463       5.355       5.227       5.041       4.857       4.648       4.433    
        4.267       4.098       3.925       3.673       3.402       3.133       2.892       2.686       2.445       2.208    
        2.002       1.795       1.574       1.381       1.178      0.9803      0.7297      0.4693      0.2474       0.000    
  35    10.00       9.949       9.906       9.834       9.697       9.523       9.373       9.194       8.947       8.584    
        8.217       7.912       7.633       7.419       7.263       7.120       6.942       6.732       6.518       6.304    
        6.123       5.911       5.719       5.582       5.465       5.338       5.135       4.911       4.692       4.487    
        4.359       4.204       4.015       3.822       3.584       3.295       3.046       2.876       2.627       2.356    
        2.160       1.951       1.741       1.551       1.322       1.100      0.8462      0.5650      0.2824       0.000    
  36    10.00       9.946       9.887       9.807       9.671       9.507       9.372       9.209       8.963       8.628    
        8.249       7.922       7.711       7.536       7.389       7.215       7.004       6.802       6.579       6.325    
        6.134       5.968       5.801       5.682       5.566       5.415       5.205       4.971       4.747       4.551    
        4.419       4.289       4.108       3.921       3.716       3.451       3.196       3.004       2.784       2.488    
        2.267       2.056       1.841       1.683       1.462       1.215      0.9599      0.6652      0.3384       0.000    
  37    10.00       9.931       9.865       9.779       9.643       9.494       9.345       9.188       8.965       8.608    
        8.228       7.957       7.823       7.657       7.466       7.295       7.061       6.820       6.558       6.309    
        6.151       6.019       5.863       5.742       5.609       5.437       5.242       5.006       4.802       4.643    
        4.496       4.348       4.161       3.995       3.780       3.526       3.321       3.132       2.886       2.593    
        2.327       2.120       1.947       1.769       1.560       1.328       1.083      0.7523      0.4077       0.000    
  38    10.00       9.925       9.840       9.749       9.625       9.480       9.317       9.154       8.921       8.592    
        8.301       8.080       7.908       7.760       7.551       7.297       7.038       6.761       6.485       6.317    
        6.192       6.037       5.896       5.788       5.651       5.455       5.223       5.008       4.877       4.743    
        4.581       4.412       4.227       4.055       3.844       3.606       3.419       3.227       2.934       2.626    
        2.395       2.201       2.024       1.846       1.658       1.434       1.181      0.8618      0.4473       0.000    
  39    10.00       9.905       9.821       9.731       9.610       9.450       9.275       9.106       8.894       8.629    
        8.402       8.236       8.046       7.840       7.550       7.230       6.918       6.627       6.455       6.340    
        6.183       6.021       5.918       5.818       5.693       5.470       5.230       5.071       4.951       4.813    
        4.642       4.476       4.288       4.102       3.920       3.719       3.503       3.279       2.976       2.670    
        2.426       2.231       2.093       1.950       1.746       1.517       1.261      0.9141      0.4478       0.000    
  40    10.00       9.890       9.809       9.719       9.598       9.432       9.253       9.083       8.902       8.683    
        8.496       8.355       8.129       7.813       7.454       7.101       6.785       6.580       6.460       6.331    
        6.162       6.019       5.923       5.814       5.668       5.490       5.318       5.154       5.010       4.881    
        4.723       4.536       4.342       4.164       3.993       3.789       3.556       3.329       2.999       2.664    
        2.442       2.279       2.135       2.011       1.805       1.550       1.314      0.9503      0.4693       0.000    
  41    10.00       9.899       9.804       9.706       9.572       9.423       9.267       9.114       8.942       8.747    
        8.570       8.404       8.111       7.719       7.324       7.003       6.750       6.571       6.450       6.307    
        6.137       6.014       5.914       5.797       5.666       5.531       5.400       5.243       5.071       4.922    
        4.779       4.598       4.401       4.236       4.056       3.856       3.617       3.301       2.934       2.676    
        2.494       2.324       2.190       2.035       1.816       1.564       1.355       1.009      0.5168       0.000    
  42    10.00       9.903       9.798       9.708       9.592       9.453       9.298       9.129       8.976       8.827    
        8.620       8.333       7.970       7.567       7.213       6.962       6.743       6.573       6.435       6.265    
        6.108       5.996       5.895       5.808       5.692       5.590       5.468       5.289       5.108       4.973    
        4.843       4.647       4.434       4.279       4.124       3.899       3.593       3.215       2.887       2.689    
        2.544       2.399       2.233       2.031       1.804       1.601       1.390       1.051      0.5408       0.000    
  43    10.00       9.904       9.809       9.717       9.625       9.502       9.348       9.182       9.018       8.811    
        8.524       8.196       7.825       7.437       7.159       6.949       6.741       6.567       6.401       6.234    
        6.086       5.980       5.902       5.834       5.731       5.618       5.501       5.328       5.163       5.051    
        4.887       4.671       4.469       4.316       4.139       3.864       3.505       3.139       2.910       2.753    
        2.599       2.442       2.240       2.021       1.814       1.617       1.428       1.048      0.4721       0.000    
  44    10.00       9.899       9.811       9.732       9.632       9.539       9.409       9.210       8.992       8.711    
        8.422       8.077       7.672       7.388       7.172       6.940       6.715       6.519       6.340       6.190    
        6.083       5.997       5.921       5.850       5.761       5.648       5.510       5.372       5.243       5.101    
        4.944       4.748       4.520       4.304       4.096       3.816       3.440       3.123       2.939       2.787    
        2.639       2.466       2.263       2.068       1.851       1.632       1.385      0.8975      0.3967       0.000    
  45    10.00       9.899       9.827       9.736       9.642       9.559       9.373       9.149       8.895       8.619    
        8.376       7.964       7.586       7.373       7.155       6.903       6.651       6.451       6.292       6.182    
        6.105       6.027       5.948       5.862       5.767       5.663       5.548       5.430       5.324       5.179    
        4.990       4.781       4.550       4.289       4.052       3.748       3.394       3.144       2.992       2.839    
        2.647       2.447       2.269       2.093       1.903       1.668       1.250      0.7528      0.3813       0.000    
  46    10.00       9.917       9.840       9.744       9.641       9.486       9.291       9.106       8.875       8.604    
        8.255       7.877       7.573       7.308       7.085       6.838       6.586       6.430       6.310       6.207    
        6.135       6.064       5.970       5.867       5.773       5.681       5.586       5.481       5.376       5.243    
        5.067       4.849       4.592       4.298       3.968       3.639       3.381       3.209       3.040       2.865    
        2.644       2.435       2.258       2.116       1.912       1.584       1.121      0.7095      0.3605       0.000    
  47    10.00       9.935       9.865       9.765       9.588       9.400       9.234       9.076       8.869       8.532    
        8.156       7.805       7.512       7.290       7.051       6.777       6.560       6.420       6.325       6.241    
        6.164       6.081       5.989       5.888       5.794       5.714       5.629       5.525       5.404       5.272    
        5.117       4.924       4.594       4.204       3.893       3.650       3.424       3.277       3.121       2.878    
        2.615       2.395       2.229       2.114       1.858       1.466       1.042      0.6831      0.3506       0.000    
  48    10.00       9.943       9.869       9.720       9.541       9.386       9.208       9.049       8.829       8.474    
        8.065       7.746       7.509       7.244       6.966       6.720       6.557       6.420       6.329       6.267    
        6.190       6.090       5.989       5.901       5.826       5.757       5.676       5.561       5.418       5.266    
        5.105       4.885       4.544       4.223       3.950       3.708       3.497       3.330       3.130       2.839    
        2.560       2.383       2.244       2.028       1.686       1.335      0.9950      0.6883      0.3703       0.000    
  49    10.00       9.940       9.834       9.701       9.555       9.375       9.196       9.017       8.745       8.370    
        8.017       7.718       7.433       7.182       6.968       6.736       6.525       6.402       6.341       6.281    
        6.209       6.097       5.984       5.911       5.849       5.795       5.704       5.566       5.405       5.258    
        5.090       4.821       4.532       4.317       4.067       3.784       3.528       3.326       3.096       2.784    
        2.559       2.404       2.197       1.871       1.567       1.280      0.9840      0.6884      0.3692       0.000    
  50    10.00       9.932       9.822       9.686       9.554       9.386       9.186       8.963       8.676       8.379    
        8.011       7.637       7.373       7.172       6.991       6.730       6.496       6.404       6.350       6.289    
        6.217       6.102       5.987       5.916       5.863       5.813       5.711       5.553       5.389       5.250    
        5.078       4.800       4.576       4.383       4.122       3.841       3.574       3.298       2.982       2.721    
        2.604       2.428       2.110       1.783       1.556       1.278      0.9979      0.6744      0.3007       0.000    

 HEAD WILL BE SAVED ON UNIT   51 AT END OF TIME STEP  90, STRESS PERIOD    2

 DRAWDOWN WILL BE SAVED ON UNIT   52 AT END OF TIME STEP  90, STRESS PERIOD    2
1
  VOLUMETRIC BUDGET FOR ENTIRE MODEL AT END OF TIME STEP 90 IN STRESS PERIOD   2
  ------------------------------------------------------------------------------

     CUMULATIVE VOLUMES      L**3       RATES FOR THIS TIME STEP      L**3/T
     ------------------                 ------------------------

           IN:                                      IN:
           ---                                      ---
             STORAGE =       41406.1641               STORAGE =         380.9222
       CONSTANT HEAD =       57298.5000         CONSTANT HEAD =         690.5842
               WELLS =           0.0000                 WELLS =           0.0000

            TOTAL IN =       98704.6641              TOTAL IN =        1071.5063

          OUT:                                     OUT:
          ----                                     ----
             STORAGE =       9.4320E-03               STORAGE =           0.0000
       CONSTANT HEAD =       53704.6484         CONSTANT HEAD =         571.5061
               WELLS =       45000.0000                 WELLS =         500.0000

           TOTAL OUT =       98704.6562             TOTAL OUT =        1071.5061

            IN - OUT =       7.8125E-03              IN - OUT =       2.4414E-04

 PERCENT DISCREPANCY =           0.00     PERCENT DISCREPANCY =           0.00






          TIME SUMMARY AT END OF TIME STEP  90 IN STRESS PERIOD    2
                    SECONDS     MINUTES      HOURS       DAYS        YEARS
                    -----------------------------------------------------------
   TIME STEP LENGTH  86400.      1440.0      24.000      1.0000     2.73785E-03
 STRESS PERIOD TIME 7.77600E+06 1.29600E+05  2160.0      90.000     0.24641    
         TOTAL TIME 7.86240E+06 1.31040E+05  2184.0      91.000     0.24914    
1
 
 SOLVING FOR HEAD 

 OUTPUT CONTROL FOR STRESS PERIOD    2   TIME STEP  91
    SAVE HEAD FOR ALL LAYERS
    SAVE DRAWDOWN FOR ALL LAYERS
    SAVE BUDGET
    PRINT HEAD FOR ALL LAYERS
    PRINT BUDGET
 UBDSV1 SAVING "         STORAGE" ON UNIT  53 AT TIME STEP 91, STRESS PERIOD   2
 UBDSV2 SAVING "   CONSTANT HEAD" ON UNIT  53 AT TIME STEP 91, STRESS PERIOD   2
 UBDSV1 SAVING "FLOW RIGHT FACE " ON UNIT  53 AT TIME STEP 91, STRESS PERIOD   2
 UBDSV1 SAVING "FLOW FRONT FACE " ON UNIT  53 AT TIME STEP 91, STRESS PERIOD   2
1
              HEAD IN LAYER   1 AT END OF TIME STEP  91 IN STRESS PERIOD    2
  ---------------------------------------------------------------------------

            1           2           3           4           5           6           7           8           9          10
           11          12          13          14          15          16          17          18          19          20
           21          22          23          24          25          26          27          28          29          30
           31          32          33          34          35          36          37          38          39          40
           41          42          43          44          45          46          47          48          49          50
 ........................................................................................................................
   1    10.00       9.953       9.886       9.809       9.735       9.651       9.571       9.492       9.393       9.296    
        9.221       9.148       9.073       9.000       8.883       8.742       8.584       8.460       8.397       8.323    
        8.236       8.167       8.100       8.023       7.921       7.721       7.497       7.341       7.190       7.048    
        6.864       6.570       6.195       5.780       5.349       4.892       4.440       4.065       3.577       3.045    
        2.610       2.194       1.733       1.348       1.112      0.9115      0.7531      0.6385      0.4286       0.000    
   2    10.00       9.952       9.891       9.814       9.739       9.664       9.585       9.481       9.373       9.293    
        9.228       9.166       9.103       9.013       8.878       8.730       8.582       8.460       8.394       8.312    
        8.224       8.172       8.118       8.038       7.907       7.712       7.508       7.348       7.195       7.057    
        6.852       6.544       6.150       5.675       5.216       4.775       4.384       4.021       3.523       3.009    
        2.573       2.107       1.687       1.386       1.164      0.9920      0.7959      0.6214      0.3467       0.000    
   3    10.00       9.945       9.885       9.816       9.750       9.674       9.572       9.463       9.386       9.315    
        9.242       9.185       9.130       9.042       8.905       8.722       8.560       8.462       8.385       8.301    
        8.230       8.175       8.119       8.010       7.869       7.693       7.516       7.390       7.211       7.032    
        6.773       6.406       5.954       5.493       5.088       4.679       4.297       3.907       3.390       2.914    
        2.541       2.114       1.732       1.457       1.237       1.060      0.8278      0.5552      0.2517       0.000    
   4    10.00       9.945       9.886       9.819       9.744       9.656       9.551       9.468       9.401       9.328    
        9.264       9.216       9.154       9.055       8.921       8.726       8.558       8.465       8.379       8.304    
        8.227       8.159       8.087       7.973       7.832       7.675       7.513       7.357       7.197       6.992    
        6.665       6.177       5.695       5.346       5.013       4.592       4.134       3.676       3.264       2.908    
        2.561       2.167       1.809       1.562       1.316       1.091      0.8038      0.4991      0.2391       0.000    
   5    10.00       9.941       9.881       9.806       9.730       9.648       9.554       9.482       9.413       9.344    
        9.289       9.242       9.161       9.045       8.896       8.719       8.576       8.474       8.389       8.287    
        8.194       8.120       8.031       7.920       7.795       7.632       7.471       7.326       7.167       6.914    
        6.440       5.889       5.503       5.232       4.902       4.449       3.978       3.565       3.260       2.940    
        2.602       2.242       1.890       1.661       1.398       1.073      0.7312      0.4447      0.2237       0.000    
   6    10.00       9.933       9.862       9.799       9.730       9.641       9.561       9.499       9.427       9.362    
        9.309       9.252       9.149       9.018       8.888       8.739       8.595       8.477       8.363       8.245    
        8.151       8.064       7.987       7.886       7.725       7.564       7.435       7.288       7.064       6.677    
        6.150       5.650       5.329       5.097       4.799       4.351       3.885       3.544       3.287       3.000    
        2.695       2.381       2.023       1.718       1.369       1.011      0.6451      0.3833      0.2110       0.000    
   7    10.00       9.920       9.851       9.792       9.721       9.646       9.575       9.516       9.450       9.386    
        9.321       9.234       9.121       8.998       8.874       8.757       8.605       8.443       8.311       8.195    
        8.097       8.012       7.946       7.818       7.653       7.518       7.386       7.184       6.817       6.318    
        5.819       5.416       5.203       4.998       4.652       4.231       3.920       3.594       3.318       3.134    
        2.848       2.513       2.093       1.658       1.267      0.8768      0.5548      0.3856      0.1986       0.000    
   8    10.00       9.919       9.857       9.790       9.718       9.652       9.590       9.530       9.469       9.407    
        9.322       9.211       9.099       8.981       8.867       8.734       8.543       8.372       8.265       8.153    
        8.043       7.971       7.871       7.732       7.587       7.446       7.221       6.904       6.436       6.000    
        5.630       5.327       5.134       4.899       4.528       4.184       3.905       3.665       3.457       3.247    
        2.969       2.549       2.034       1.570       1.164      0.8194      0.5866      0.3773      0.1809       0.000    
   9    10.00       9.932       9.856       9.783       9.729       9.674       9.612       9.548       9.480       9.414    
        9.314       9.187       9.065       8.947       8.825       8.667       8.481       8.324       8.208       8.094    
        7.996       7.903       7.766       7.633       7.497       7.321       6.991       6.566       6.128       5.811    
        5.510       5.264       5.053       4.761       4.420       4.135       3.925       3.752       3.566       3.338    
        3.004       2.546       2.023       1.564       1.170      0.8363      0.5912      0.3802      0.1945       0.000    
  10    10.00       9.929       9.849       9.789       9.739       9.686       9.629       9.575       9.495       9.396    
        9.275       9.141       9.024       8.914       8.786       8.592       8.396       8.260       8.154       8.047    
        7.955       7.825       7.673       7.522       7.362       7.102       6.676       6.237       5.869       5.615    
        5.424       5.219       4.962       4.668       4.355       4.120       3.965       3.816       3.615       3.352    
        2.970       2.497       2.021       1.630       1.264      0.9186      0.6090      0.4034      0.2169       0.000    
  11    10.00       9.914       9.848       9.799       9.750       9.704       9.652       9.575       9.466       9.354    
        9.232       9.102       8.993       8.859       8.684       8.498       8.338       8.217       8.120       8.012    
        7.874       7.705       7.499       7.326       7.054       6.688       6.327       6.008       5.704       5.519    
        5.373       5.108       4.830       4.588       4.352       4.177       4.018       3.828       3.580       3.261    
        2.903       2.539       2.086       1.703       1.355       1.014      0.6830      0.3958      0.1661       0.000    
  12    10.00       9.916       9.856       9.804       9.762       9.714       9.654       9.545       9.418       9.311    
        9.197       9.060       8.926       8.766       8.613       8.442       8.287       8.183       8.074       7.923    
        7.690       7.438       7.193       6.950       6.586       6.312       6.112       5.799       5.552       5.418    
        5.253       5.004       4.779       4.558       4.393       4.226       4.027       3.795       3.495       3.177    
        2.877       2.550       2.113       1.739       1.413       1.057      0.7170      0.3724      0.1236       0.000    
  13    10.00       9.932       9.875       9.820       9.770       9.713       9.615       9.490       9.369       9.260    
        9.131       8.997       8.858       8.691       8.522       8.361       8.248       8.118       7.973       7.669    
        7.315       7.049       6.780       6.455       6.178       6.050       5.825       5.551       5.420       5.299    
        5.105       4.895       4.719       4.560       4.421       4.265       4.029       3.718       3.433       3.136    
        2.852       2.516       2.048       1.701       1.422       1.045      0.6571      0.3204      9.8100E-02   0.000    
  14    10.00       9.948       9.898       9.839       9.769       9.675       9.548       9.421       9.312       9.191    
        9.059       8.933       8.775       8.599       8.449       8.310       8.137       7.965       7.675       7.222    
        6.883       6.627       6.269       6.018       5.892       5.778       5.556       5.389       5.261       5.134    
        4.968       4.823       4.702       4.569       4.420       4.269       4.002       3.666       3.374       3.070    
        2.782       2.365       1.923       1.652       1.336      0.9970      0.6553      0.2956      8.4189E-02   0.000    
  15    10.00       9.958       9.906       9.840       9.756       9.617       9.462       9.351       9.249       9.129    
        9.025       8.895       8.691       8.491       8.352       8.132       7.911       7.732       7.286       6.793    
        6.490       6.148       5.850       5.759       5.696       5.550       5.363       5.208       5.110       5.014    
        4.892       4.789       4.692       4.575       4.431       4.248       3.936       3.566       3.261       2.988    
        2.681       2.264       1.919       1.582       1.207      0.9101      0.5838      0.2701      9.1379E-02   0.000    
  16    10.00       9.965       9.909       9.826       9.702       9.536       9.398       9.310       9.219       9.099    
        8.973       8.779       8.523       8.330       8.129       7.875       7.729       7.362       6.738       6.311    
        6.049       5.760       5.657       5.607       5.487       5.298       5.153       5.079       5.037       4.956    
        4.855       4.762       4.680       4.562       4.387       4.137       3.782       3.467       3.232       2.950    
        2.596       2.188       1.818       1.452       1.132      0.8038      0.5222      0.2720      9.7110E-02   0.000    
  17    10.00       9.959       9.891       9.781       9.639       9.467       9.345       9.268       9.159       9.030    
        8.803       8.532       8.318       8.120       7.861       7.609       7.299       6.716       6.204       5.942    
        5.739       5.590       5.520       5.397       5.210       5.077       5.037       5.019       4.977       4.897    
        4.809       4.729       4.642       4.521       4.265       3.941       3.670       3.471       3.247       2.908    
        2.463       2.067       1.725       1.383       1.013      0.6690      0.4442      0.2463      0.1026       0.000    
  18    10.00       9.942       9.854       9.725       9.538       9.393       9.307       9.190       9.057       8.862    
        8.574       8.349       8.149       7.847       7.510       7.164       6.732       6.231       5.922       5.725    
        5.573       5.445       5.330       5.163       5.036       4.998       4.982       4.961       4.905       4.828    
        4.756       4.675       4.565       4.376       4.114       3.858       3.652       3.491       3.209       2.792    
        2.366       1.955       1.612       1.292      0.9374      0.6157      0.3749      0.2056      9.5978E-02   0.000    
  19    10.00       9.922       9.820       9.632       9.445       9.360       9.250       9.099       8.937       8.715    
        8.459       8.237       7.915       7.486       7.137       6.799       6.340       5.939       5.746       5.618    
        5.459       5.296       5.166       5.027       4.961       4.943       4.922       4.878       4.808       4.742    
        4.671       4.583       4.438       4.250       4.043       3.831       3.659       3.453       3.051       2.642    
        2.306       1.888       1.518       1.207      0.8596      0.5540      0.3369      0.1949      9.7615E-02   0.000    
  20    10.00       9.899       9.742       9.546       9.409       9.311       9.189       9.026       8.833       8.627    
        8.360       8.029       7.593       7.202       6.895       6.494       6.081       5.879       5.716       5.543    
        5.370       5.199       5.039       4.938       4.893       4.857       4.805       4.760       4.692       4.632    
        4.563       4.475       4.332       4.173       3.992       3.816       3.635       3.314       2.897       2.553    
        2.182       1.776       1.449       1.139      0.8164      0.4975      0.2926      0.1966      9.9333E-02   0.000    
  21    10.00       9.840       9.678       9.518       9.374       9.264       9.129       8.921       8.725       8.525    
        8.178       7.761       7.355       7.036       6.708       6.326       6.033       5.857       5.671       5.481    
        5.270       5.076       4.936       4.832       4.755       4.687       4.645       4.603       4.532       4.486    
        4.440       4.348       4.230       4.098       3.941       3.775       3.520       3.199       2.842       2.436    
        2.065       1.685       1.403       1.119      0.7096      0.4205      0.2998      0.2189      0.1052       0.000    
  22    10.00       9.816       9.626       9.469       9.347       9.214       9.016       8.809       8.635       8.371    
        8.005       7.572       7.223       6.958       6.600       6.248       6.002       5.821       5.637       5.408    
        5.165       4.968       4.786       4.625       4.522       4.472       4.438       4.381       4.358       4.332    
        4.298       4.230       4.145       4.025       3.884       3.725       3.462       3.148       2.729       2.330    
        2.011       1.668       1.355      0.9342      0.5854      0.4219      0.3174      0.2113      8.3978E-02   0.000    
  23    10.00       9.775       9.588       9.459       9.324       9.127       8.904       8.743       8.522       8.248    
        7.877       7.492       7.223       6.888       6.503       6.198       5.990       5.823       5.615       5.341    
        5.082       4.850       4.609       4.321       4.067       4.016       4.089       4.123       4.172       4.190    
        4.177       4.136       4.065       3.970       3.837       3.672       3.430       3.040       2.603       2.276    
        1.971       1.581       1.131      0.7657      0.5720      0.4335      0.3175      0.2017      9.3936E-02   0.000    
  24    10.00       9.743       9.608       9.459       9.269       9.052       8.877       8.701       8.485       8.170    
        7.830       7.531       7.234       6.831       6.424       6.183       6.011       5.837       5.586       5.309    
        5.052       4.786       4.416       3.755       2.761       3.092       3.544       3.831       3.985       4.049    
        4.070       4.048       4.003       3.907       3.778       3.612       3.313       2.904       2.535       2.190    
        1.819       1.406       1.007      0.7326      0.5706      0.4320      0.3108      0.2356      0.1297       0.000    
  25    10.00       9.776       9.634       9.453       9.254       9.060       8.881       8.714       8.450       8.137    
        7.851       7.563       7.201       6.760       6.444       6.223       6.031       5.827       5.592       5.336    
        5.057       4.792       4.116       2.711     -0.4738       2.105       3.080       3.569       3.831       3.952    
        3.989       3.984       3.938       3.828       3.693       3.491       3.182       2.790       2.457       2.084    
        1.657       1.268      0.9416      0.7275      0.5950      0.4655      0.3403      0.2509      0.1638       0.000    
  26    10.00       9.809       9.674       9.480       9.275       9.106       8.920       8.709       8.440       8.196    
        7.949       7.566       7.110       6.735       6.504       6.305       6.076       5.811       5.563       5.343    
        5.127       4.835       4.211       3.189       2.116       2.636       3.199       3.556       3.778       3.908    
        3.945       3.937       3.875       3.768       3.639       3.420       3.017       2.655       2.374       1.917    
        1.452       1.129      0.9358      0.7909      0.6495      0.5055      0.3750      0.2748      0.1641       0.000    
  27    10.00       9.851       9.689       9.523       9.340       9.145       8.961       8.757       8.516       8.283    
        7.953       7.503       7.108       6.802       6.599       6.374       6.075       5.783       5.581       5.405    
        5.224       4.922       4.453       3.887       3.285       3.300       3.498       3.685       3.828       3.908    
        3.929       3.912       3.851       3.741       3.566       3.224       2.844       2.557       2.121       1.668    
        1.332       1.118      0.9767      0.8538      0.7234      0.5572      0.4015      0.3005      0.2020       0.000    
  28    10.00       9.865       9.728       9.570       9.405       9.220       9.030       8.826       8.599       8.330    
        7.928       7.520       7.177       6.883       6.671       6.445       6.188       5.901       5.631       5.455    
        5.293       5.076       4.763       4.337       3.953       3.780       3.790       3.876       3.914       3.943    
        3.938       3.906       3.834       3.676       3.415       3.056       2.726       2.332       1.898       1.593    
        1.344       1.166       1.025      0.9033      0.7690      0.6099      0.4555      0.3423      0.2087       0.000    
  29    10.00       9.872       9.742       9.624       9.466       9.297       9.115       8.910       8.670       8.311    
        7.918       7.561       7.236       6.992       6.749       6.505       6.270       6.040       5.776       5.547    
        5.373       5.189       4.972       4.709       4.360       4.173       4.101       4.071       4.054       4.018    
        3.970       3.900       3.804       3.591       3.272       2.939       2.588       2.185       1.849       1.624    
        1.418       1.222       1.067      0.9482      0.8173      0.6541      0.4947      0.3623      0.2113       0.000    
  30    10.00       9.884       9.776       9.673       9.536       9.381       9.219       8.992       8.694       8.330    
        7.925       7.564       7.292       7.053       6.814       6.577       6.380       6.181       5.942       5.697    
        5.487       5.317       5.128       4.938       4.715       4.512       4.429       4.299       4.226       4.123    
        4.008       3.889       3.741       3.512       3.239       2.916       2.547       2.169       1.918       1.707    
        1.473       1.279       1.131      0.9879      0.8405      0.6956      0.5282      0.3783      0.2286       0.000    
  31    10.00       9.904       9.811       9.716       9.616       9.495       9.319       9.053       8.711       8.333    
        7.944       7.608       7.350       7.106       6.894       6.674       6.466       6.314       6.084       5.847    
        5.645       5.468       5.302       5.129       4.987       4.826       4.666       4.519       4.369       4.221    
        4.047       3.874       3.714       3.519       3.242       2.899       2.543       2.224       2.016       1.826    
        1.583       1.359       1.184       1.033      0.8860      0.7322      0.5637      0.4051      0.2230       0.000    
  32    10.00       9.919       9.849       9.766       9.669       9.561       9.388       9.089       8.770       8.427    
        8.016       7.667       7.411       7.182       6.969       6.784       6.599       6.406       6.220       5.994    
        5.781       5.589       5.428       5.269       5.138       5.024       4.847       4.677       4.484       4.282    
        4.090       3.906       3.722       3.528       3.262       2.949       2.646       2.363       2.140       1.927    
        1.701       1.465       1.278       1.100      0.9309      0.7908      0.6178      0.4073      0.2025       0.000    
  33    10.00       9.931       9.874       9.807       9.714       9.591       9.374       9.087       8.820       8.505    
        8.107       7.762       7.498       7.250       7.054       6.894       6.730       6.538       6.331       6.125    
        5.902       5.696       5.508       5.352       5.245       5.131       4.967       4.764       4.566       4.368    
        4.172       3.994       3.801       3.548       3.293       3.006       2.745       2.516       2.284       2.051    
        1.840       1.615       1.408       1.221       1.031      0.8638      0.6688      0.4193      0.1976       0.000    
  34    10.00       9.938       9.900       9.842       9.729       9.563       9.355       9.143       8.870       8.530    
        8.182       7.848       7.568       7.323       7.144       7.016       6.842       6.650       6.426       6.232    
        6.031       5.790       5.601       5.455       5.347       5.219       5.033       4.850       4.641       4.426    
        4.261       4.093       3.920       3.668       3.397       3.130       2.889       2.683       2.442       2.206    
        2.000       1.793       1.572       1.380       1.177      0.9793      0.7290      0.4689      0.2472       0.000    
  35    10.00       9.949       9.906       9.834       9.696       9.522       9.371       9.192       8.944       8.580    
        8.212       7.906       7.628       7.413       7.256       7.113       6.935       6.725       6.511       6.297    
        6.116       5.904       5.712       5.574       5.458       5.331       5.128       4.904       4.685       4.481    
        4.354       4.199       4.010       3.818       3.581       3.291       3.043       2.873       2.624       2.354    
        2.158       1.949       1.739       1.550       1.321       1.100      0.8456      0.5646      0.2821       0.000    
  36    10.00       9.946       9.886       9.806       9.670       9.506       9.371       9.207       8.961       8.625    
        8.245       7.917       7.706       7.530       7.383       7.209       6.998       6.795       6.572       6.318    
        6.127       5.961       5.794       5.675       5.559       5.408       5.199       4.965       4.742       4.546    
        4.414       4.284       4.104       3.918       3.713       3.448       3.193       3.001       2.781       2.486    
        2.265       2.055       1.840       1.682       1.461       1.214      0.9592      0.6648      0.3382       0.000    
  37    10.00       9.931       9.865       9.779       9.642       9.493       9.343       9.187       8.963       8.605    
        8.225       7.952       7.818       7.652       7.460       7.289       7.055       6.813       6.551       6.303    
        6.145       6.013       5.857       5.736       5.603       5.431       5.236       5.001       4.798       4.638    
        4.492       4.344       4.157       3.991       3.777       3.523       3.318       3.130       2.883       2.591    
        2.326       2.119       1.946       1.768       1.559       1.328       1.083      0.7518      0.4074       0.000    
  38    10.00       9.925       9.840       9.749       9.624       9.479       9.315       9.153       8.918       8.589    
        8.298       8.076       7.904       7.755       7.546       7.291       7.033       6.755       6.479       6.312    
        6.187       6.031       5.891       5.783       5.646       5.450       5.218       5.004       4.873       4.739    
        4.577       4.408       4.224       4.052       3.841       3.603       3.416       3.225       2.932       2.624    
        2.393       2.199       2.023       1.844       1.657       1.433       1.180      0.8613      0.4470       0.000    
  39    10.00       9.905       9.821       9.731       9.609       9.449       9.274       9.104       8.892       8.627    
        8.399       8.233       8.042       7.836       7.546       7.226       6.913       6.622       6.450       6.335    
        6.178       6.016       5.913       5.814       5.689       5.465       5.226       5.068       4.948       4.809    
        4.638       4.473       4.285       4.099       3.917       3.716       3.501       3.277       2.974       2.669    
        2.425       2.230       2.092       1.949       1.745       1.516       1.260      0.9136      0.4476       0.000    
  40    10.00       9.890       9.808       9.719       9.597       9.431       9.252       9.081       8.900       8.681    
        8.493       8.352       8.125       7.810       7.450       7.097       6.781       6.575       6.455       6.327    
        6.157       6.015       5.919       5.810       5.665       5.487       5.315       5.150       5.006       4.878    
        4.720       4.533       4.339       4.161       3.990       3.786       3.553       3.327       2.997       2.663    
        2.441       2.278       2.133       2.010       1.804       1.549       1.314      0.9498      0.4691       0.000    
  41    10.00       9.899       9.804       9.705       9.572       9.422       9.266       9.113       8.941       8.745    
        8.568       8.401       8.108       7.715       7.320       6.999       6.746       6.567       6.446       6.303    
        6.133       6.011       5.910       5.793       5.662       5.528       5.397       5.239       5.068       4.919    
        4.776       4.595       4.398       4.234       4.053       3.853       3.615       3.299       2.932       2.674    
        2.493       2.322       2.189       2.034       1.815       1.563       1.355       1.008      0.5165       0.000    
  42    10.00       9.902       9.798       9.707       9.591       9.452       9.297       9.127       8.974       8.825    
        8.618       8.331       7.967       7.564       7.210       6.959       6.739       6.570       6.431       6.261    
        6.105       5.992       5.892       5.805       5.689       5.587       5.465       5.286       5.105       4.970    
        4.840       4.645       4.431       4.276       4.122       3.897       3.591       3.213       2.886       2.688    
        2.543       2.397       2.232       2.030       1.803       1.600       1.389       1.050      0.5405       0.000    
  43    10.00       9.904       9.808       9.716       9.625       9.502       9.347       9.181       9.016       8.809    
        8.522       8.194       7.823       7.434       7.156       6.946       6.738       6.564       6.398       6.230    
        6.082       5.977       5.899       5.831       5.728       5.615       5.498       5.325       5.160       5.048    
        4.884       4.668       4.467       4.314       4.136       3.862       3.503       3.137       2.908       2.751    
        2.597       2.440       2.238       2.020       1.813       1.616       1.427       1.047      0.4719       0.000    
  44    10.00       9.899       9.811       9.732       9.632       9.538       9.408       9.209       8.991       8.709    
        8.420       8.075       7.669       7.386       7.169       6.938       6.712       6.516       6.337       6.187    
        6.080       5.994       5.918       5.847       5.758       5.645       5.507       5.369       5.240       5.098    
        4.941       4.746       4.518       4.302       4.094       3.814       3.438       3.121       2.937       2.786    
        2.638       2.464       2.262       2.067       1.850       1.631       1.384      0.8971      0.3965       0.000    
  45    10.00       9.899       9.827       9.736       9.642       9.559       9.372       9.148       8.894       8.617    
        8.374       7.962       7.583       7.371       7.152       6.901       6.648       6.448       6.290       6.180    
        6.102       6.024       5.945       5.859       5.764       5.661       5.545       5.427       5.322       5.176    
        4.987       4.779       4.548       4.287       4.050       3.746       3.392       3.142       2.990       2.838    
        2.646       2.446       2.268       2.092       1.902       1.667       1.249      0.7524      0.3811       0.000    
  46    10.00       9.916       9.840       9.744       9.641       9.485       9.291       9.106       8.874       8.602    
        8.254       7.875       7.571       7.306       7.083       6.835       6.583       6.427       6.307       6.205    
        6.132       6.061       5.967       5.864       5.771       5.678       5.583       5.478       5.373       5.240    
        5.064       4.846       4.590       4.295       3.966       3.637       3.379       3.207       3.038       2.863    
        2.642       2.433       2.257       2.115       1.911       1.583       1.121      0.7091      0.3603       0.000    
  47    10.00       9.935       9.865       9.764       9.587       9.400       9.233       9.075       8.868       8.530    
        8.155       7.803       7.510       7.288       7.048       6.774       6.557       6.417       6.322       6.238    
        6.161       6.078       5.986       5.885       5.791       5.711       5.626       5.522       5.401       5.270    
        5.115       4.922       4.592       4.202       3.891       3.648       3.422       3.275       3.120       2.876    
        2.613       2.394       2.228       2.113       1.857       1.465       1.041      0.6828      0.3505       0.000    
  48    10.00       9.943       9.869       9.719       9.541       9.385       9.207       9.048       8.828       8.473    
        8.063       7.744       7.507       7.242       6.964       6.718       6.554       6.418       6.326       6.264    
        6.187       6.088       5.986       5.898       5.823       5.755       5.673       5.559       5.416       5.263    
        5.103       4.882       4.542       4.221       3.948       3.706       3.495       3.329       3.129       2.837    
        2.559       2.382       2.243       2.027       1.685       1.334      0.9945      0.6880      0.3702       0.000    
  49    10.00       9.940       9.834       9.701       9.555       9.374       9.195       9.017       8.744       8.368    
        8.015       7.717       7.431       7.180       6.965       6.734       6.522       6.399       6.338       6.278    
        6.206       6.094       5.982       5.908       5.846       5.792       5.702       5.563       5.402       5.256    
        5.088       4.819       4.530       4.315       4.065       3.782       3.526       3.325       3.094       2.783    
        2.558       2.403       2.196       1.870       1.566       1.279      0.9836      0.6881      0.3691       0.000    
  50    10.00       9.932       9.822       9.686       9.554       9.385       9.185       8.962       8.675       8.378    
        8.009       7.636       7.371       7.170       6.989       6.728       6.494       6.401       6.347       6.287    
        6.215       6.099       5.984       5.913       5.860       5.810       5.708       5.550       5.386       5.247    
        5.075       4.798       4.574       4.381       4.120       3.840       3.572       3.297       2.981       2.719    
        2.603       2.427       2.109       1.782       1.555       1.277      0.9975      0.6741      0.3006       0.000    

 HEAD WILL BE SAVED ON UNIT   51 AT END OF TIME STEP  91, STRESS PERIOD    2

 DRAWDOWN WILL BE SAVED ON UNIT   52 AT END OF TIME STEP  91, STRESS PERIOD    2
1
  VOLUMETRIC BUDGET FOR ENTIRE MODEL AT END OF TIME STEP 91 IN STRESS PERIOD   2
  ------------------------------------------------------------------------------

     CUMULATIVE VOLUMES      L**3       RATES FOR THIS TIME STEP      L**3/T
     ------------------                 ------------------------

           IN:                                      IN:
           ---                                      ---
             STORAGE =       41784.9688               STORAGE =         378.8056
       CONSTANT HEAD =       57990.5703         CONSTANT HEAD =         692.0688
               WELLS =           0.0000                 WELLS =           0.0000

            TOTAL IN =       99775.5391              TOTAL IN =        1070.8745

          OUT:                                     OUT:
          ----                                     ----
             STORAGE =       9.4320E-03               STORAGE =           0.0000
       CONSTANT HEAD =       54275.5234         CONSTANT HEAD =         570.8743
               WELLS =       45500.0000                 WELLS =         500.0000

           TOTAL OUT =       99775.5312             TOTAL OUT =        1070.8743

            IN - OUT =       7.8125E-03              IN - OUT =       2.4414E-04

 PERCENT DISCREPANCY =           0.00     PERCENT DISCREPANCY =           0.00






          TIME SUMMARY AT END OF TIME STEP  91 IN STRESS PERIOD    2
                    SECONDS     MINUTES      HOURS       DAYS        YEARS
                    -----------------------------------------------------------
   TIME STEP LENGTH  86400.      1440.0      24.000      1.0000     2.73785E-03
 STRESS PERIOD TIME 7.86240E+06 1.31040E+05  2184.0      91.000     0.24914    
         TOTAL TIME 7.94880E+06 1.32480E+05  2208.0      92.000     0.25188    
1
 
 SOLVING FOR HEAD 

 OUTPUT CONTROL FOR STRESS PERIOD    2   TIME STEP  92
    SAVE HEAD FOR ALL LAYERS
    SAVE DRAWDOWN FOR ALL LAYERS
    SAVE BUDGET
    PRINT HEAD FOR ALL LAYERS
    PRINT BUDGET
 UBDSV1 SAVING "         STORAGE" ON UNIT  53 AT TIME STEP 92, STRESS PERIOD   2
 UBDSV2 SAVING "   CONSTANT HEAD" ON UNIT  53 AT TIME STEP 92, STRESS PERIOD   2
 UBDSV1 SAVING "FLOW RIGHT FACE " ON UNIT  53 AT TIME STEP 92, STRESS PERIOD   2
 UBDSV1 SAVING "FLOW FRONT FACE " ON UNIT  53 AT TIME STEP 92, STRESS PERIOD   2
1
              HEAD IN LAYER   1 AT END OF TIME STEP  92 IN STRESS PERIOD    2
  ---------------------------------------------------------------------------

            1           2           3           4           5           6           7           8           9          10
           11          12          13          14          15          16          17          18          19          20
           21          22          23          24          25          26          27          28          29          30
           31          32          33          34          35          36          37          38          39          40
           41          42          43          44          45          46          47          48          49          50
 ........................................................................................................................
   1    10.00       9.953       9.886       9.809       9.735       9.650       9.570       9.491       9.392       9.295    
        9.220       9.146       9.071       8.998       8.881       8.739       8.581       8.457       8.394       8.320    
        8.232       8.163       8.096       8.019       7.917       7.717       7.493       7.337       7.185       7.044    
        6.860       6.566       6.191       5.776       5.345       4.888       4.437       4.062       3.573       3.042    
        2.607       2.192       1.732       1.347       1.110      0.9105      0.7523      0.6378      0.4281       0.000    
   2    10.00       9.952       9.891       9.814       9.738       9.663       9.584       9.480       9.371       9.292    
        9.227       9.164       9.101       9.011       8.876       8.728       8.579       8.457       8.391       8.309    
        8.221       8.169       8.114       8.034       7.904       7.708       7.504       7.344       7.191       7.053    
        6.848       6.539       6.145       5.671       5.212       4.771       4.380       4.018       3.520       3.006    
        2.570       2.104       1.685       1.384       1.162      0.9909      0.7950      0.6207      0.3463       0.000    
   3    10.00       9.945       9.884       9.816       9.749       9.674       9.571       9.462       9.385       9.313    
        9.241       9.183       9.128       9.040       8.902       8.720       8.557       8.458       8.381       8.298    
        8.226       8.172       8.115       8.007       7.865       7.689       7.512       7.386       7.207       7.027    
        6.768       6.402       5.949       5.489       5.084       4.675       4.294       3.903       3.386       2.911    
        2.539       2.111       1.730       1.455       1.236       1.059      0.8268      0.5546      0.2514       0.000    
   4    10.00       9.945       9.885       9.819       9.743       9.655       9.550       9.466       9.400       9.326    
        9.262       9.215       9.152       9.053       8.919       8.724       8.555       8.462       8.376       8.301    
        8.224       8.155       8.083       7.969       7.828       7.671       7.509       7.352       7.193       6.988    
        6.661       6.173       5.690       5.341       5.009       4.588       4.130       3.673       3.260       2.905    
        2.558       2.164       1.807       1.561       1.315       1.089      0.8029      0.4985      0.2388       0.000    
   5    10.00       9.941       9.881       9.806       9.730       9.648       9.553       9.480       9.412       9.343    
        9.287       9.240       9.159       9.043       8.894       8.716       8.573       8.471       8.385       8.284    
        8.190       8.116       8.028       7.917       7.791       7.628       7.467       7.322       7.163       6.909    
        6.435       5.884       5.498       5.227       4.898       4.445       3.973       3.561       3.256       2.937    
        2.599       2.239       1.888       1.660       1.396       1.072      0.7304      0.4442      0.2234       0.000    
   6    10.00       9.933       9.861       9.799       9.729       9.640       9.560       9.498       9.426       9.360    
        9.308       9.251       9.147       9.016       8.886       8.736       8.592       8.474       8.360       8.241    
        8.147       8.060       7.983       7.882       7.721       7.560       7.431       7.283       7.059       6.672    
        6.145       5.644       5.324       5.092       4.794       4.346       3.881       3.540       3.283       2.997    
        2.692       2.378       2.021       1.716       1.367       1.010      0.6443      0.3829      0.2108       0.000    
   7    10.00       9.920       9.850       9.792       9.720       9.646       9.574       9.515       9.448       9.384    
        9.320       9.233       9.119       8.996       8.871       8.754       8.602       8.440       8.308       8.192    
        8.093       8.009       7.942       7.814       7.648       7.514       7.382       7.180       6.812       6.313    
        5.813       5.411       5.197       4.992       4.646       4.225       3.916       3.589       3.314       3.130    
        2.844       2.510       2.091       1.656       1.266      0.8757      0.5542      0.3852      0.1983       0.000    
   8    10.00       9.919       9.856       9.790       9.717       9.651       9.589       9.529       9.468       9.406    
        9.320       9.209       9.097       8.979       8.864       8.732       8.540       8.369       8.261       8.150    
        8.039       7.967       7.867       7.727       7.582       7.441       7.216       6.899       6.431       5.994    
        5.624       5.321       5.128       4.894       4.523       4.179       3.900       3.661       3.452       3.243    
        2.966       2.546       2.032       1.568       1.163      0.8184      0.5859      0.3768      0.1807       0.000    
   9    10.00       9.932       9.855       9.782       9.729       9.674       9.611       9.547       9.479       9.413    
        9.313       9.186       9.063       8.945       8.822       8.665       8.478       8.321       8.205       8.090    
        7.992       7.899       7.762       7.629       7.492       7.316       6.986       6.560       6.122       5.805    
        5.503       5.258       5.047       4.755       4.415       4.129       3.919       3.747       3.562       3.333    
        3.001       2.543       2.020       1.562       1.169      0.8352      0.5904      0.3797      0.1942       0.000    
  10    10.00       9.929       9.848       9.789       9.739       9.685       9.628       9.574       9.494       9.395    
        9.273       9.139       9.022       8.911       8.784       8.589       8.393       8.256       8.150       8.043    
        7.951       7.820       7.669       7.517       7.357       7.097       6.670       6.230       5.862       5.609    
        5.417       5.213       4.955       4.661       4.349       4.114       3.960       3.811       3.611       3.347    
        2.966       2.493       2.018       1.628       1.262      0.9174      0.6082      0.4029      0.2166       0.000    
  11    10.00       9.914       9.848       9.799       9.749       9.704       9.652       9.574       9.464       9.353    
        9.231       9.099       8.990       8.856       8.681       8.495       8.334       8.213       8.116       8.007    
        7.869       7.701       7.494       7.321       7.048       6.682       6.321       6.001       5.697       5.512    
        5.366       5.101       4.824       4.582       4.346       4.171       4.013       3.822       3.575       3.256    
        2.899       2.536       2.083       1.700       1.354       1.013      0.6821      0.3952      0.1658       0.000    
  12    10.00       9.916       9.856       9.803       9.761       9.714       9.653       9.544       9.416       9.309    
        9.195       9.057       8.924       8.763       8.610       8.438       8.283       8.179       8.070       7.919    
        7.685       7.432       7.188       6.944       6.579       6.305       6.105       5.792       5.544       5.411    
        5.246       4.997       4.772       4.551       4.387       4.220       4.022       3.789       3.490       3.172    
        2.872       2.546       2.110       1.736       1.411       1.056      0.7160      0.3719      0.1235       0.000    
  13    10.00       9.932       9.875       9.819       9.769       9.712       9.614       9.488       9.368       9.258    
        9.129       8.994       8.855       8.687       8.518       8.357       8.244       8.114       7.969       7.664    
        7.310       7.043       6.773       6.448       6.171       6.043       5.817       5.543       5.412       5.291    
        5.097       4.887       4.712       4.553       4.414       4.258       4.023       3.712       3.427       3.131    
        2.848       2.512       2.045       1.699       1.420       1.043      0.6561      0.3200      9.7953E-02   0.000    
  14    10.00       9.947       9.898       9.839       9.769       9.674       9.546       9.420       9.310       9.189    
        9.056       8.931       8.772       8.596       8.445       8.306       8.132       7.961       7.669       7.216    
        6.877       6.620       6.262       6.010       5.884       5.770       5.548       5.381       5.253       5.126    
        4.960       4.816       4.694       4.562       4.413       4.263       3.996       3.660       3.369       3.065    
        2.778       2.362       1.920       1.649       1.334      0.9954      0.6543      0.2951      8.4056E-02   0.000    
  15    10.00       9.958       9.906       9.840       9.755       9.616       9.461       9.349       9.247       9.127    
        9.023       8.892       8.688       8.487       8.347       8.127       7.906       7.727       7.279       6.786    
        6.483       6.140       5.841       5.751       5.688       5.542       5.354       5.199       5.102       5.006    
        4.883       4.780       4.684       4.567       4.424       4.241       3.929       3.560       3.255       2.983    
        2.676       2.260       1.916       1.579       1.205      0.9086      0.5829      0.2697      9.1229E-02   0.000    
  16    10.00       9.965       9.908       9.826       9.701       9.535       9.396       9.308       9.217       9.096    
        8.970       8.776       8.519       8.325       8.124       7.870       7.723       7.356       6.731       6.303    
        6.040       5.751       5.648       5.598       5.478       5.289       5.144       5.070       5.028       4.947    
        4.846       4.754       4.672       4.554       4.380       4.130       3.775       3.461       3.226       2.944    
        2.591       2.184       1.815       1.450       1.130      0.8024      0.5214      0.2715      9.6946E-02   0.000    
  17    10.00       9.959       9.891       9.780       9.638       9.465       9.343       9.265       9.156       9.027    
        8.799       8.528       8.313       8.115       7.856       7.603       7.293       6.709       6.196       5.934    
        5.730       5.581       5.511       5.387       5.201       5.068       5.028       5.009       4.968       4.888    
        4.800       4.721       4.634       4.513       4.257       3.934       3.663       3.465       3.241       2.903    
        2.459       2.063       1.722       1.381       1.011      0.6678      0.4434      0.2459      0.1025       0.000    
  18    10.00       9.942       9.854       9.724       9.536       9.391       9.305       9.188       9.055       8.859    
        8.570       8.344       8.144       7.842       7.504       7.157       6.724       6.223       5.913       5.716    
        5.564       5.436       5.321       5.154       5.027       4.988       4.973       4.952       4.896       4.819    
        4.747       4.667       4.556       4.367       4.106       3.850       3.645       3.484       3.203       2.787    
        2.362       1.951       1.609       1.290      0.9357      0.6146      0.3742      0.2052      9.5808E-02   0.000    
  19    10.00       9.922       9.820       9.631       9.443       9.358       9.248       9.096       8.934       8.711    
        8.455       8.232       7.909       7.479       7.129       6.791       6.332       5.930       5.736       5.609    
        5.449       5.286       5.156       5.018       4.951       4.934       4.912       4.869       4.799       4.733    
        4.662       4.574       4.429       4.241       4.035       3.823       3.651       3.446       3.045       2.637    
        2.302       1.884       1.515       1.205      0.8581      0.5530      0.3363      0.1946      9.7440E-02   0.000    
  20    10.00       9.899       9.741       9.545       9.407       9.309       9.186       9.023       8.829       8.623    
        8.355       8.023       7.586       7.194       6.887       6.486       6.072       5.869       5.707       5.533    
        5.360       5.190       5.030       4.929       4.884       4.847       4.796       4.750       4.682       4.622    
        4.553       4.465       4.323       4.164       3.983       3.808       3.627       3.307       2.891       2.547    
        2.178       1.773       1.446       1.137      0.8148      0.4966      0.2920      0.1962      9.9154E-02   0.000    
  21    10.00       9.840       9.677       9.516       9.372       9.261       9.126       8.918       8.721       8.521    
        8.173       7.755       7.348       7.028       6.699       6.317       6.024       5.847       5.662       5.472    
        5.260       5.067       4.926       4.823       4.746       4.677       4.635       4.593       4.522       4.476    
        4.430       4.338       4.221       4.088       3.932       3.766       3.513       3.192       2.836       2.431    
        2.061       1.682       1.400       1.117      0.7083      0.4197      0.2993      0.2185      0.1050       0.000    
  22    10.00       9.816       9.624       9.467       9.344       9.212       9.013       8.806       8.631       8.366    
        8.000       7.565       7.216       6.950       6.591       6.240       5.993       5.812       5.627       5.399    
        5.155       4.959       4.776       4.616       4.512       4.462       4.428       4.371       4.348       4.322    
        4.288       4.220       4.135       4.016       3.875       3.716       3.454       3.141       2.723       2.325    
        2.007       1.664       1.352      0.9325      0.5844      0.4211      0.3169      0.2109      8.3832E-02   0.000    
  23    10.00       9.774       9.587       9.457       9.322       9.124       8.901       8.739       8.518       8.243    
        7.871       7.485       7.216       6.880       6.494       6.189       5.981       5.814       5.606       5.331    
        5.072       4.840       4.599       4.311       4.057       4.006       4.078       4.113       4.162       4.179    
        4.167       4.126       4.055       3.961       3.828       3.664       3.422       3.034       2.597       2.271    
        1.967       1.578       1.129      0.7643      0.5710      0.4328      0.3170      0.2013      9.3778E-02   0.000    
  24    10.00       9.743       9.607       9.457       9.266       9.049       8.873       8.697       8.481       8.164    
        7.824       7.524       7.226       6.823       6.415       6.174       6.002       5.828       5.577       5.300    
        5.042       4.776       4.406       3.745       2.751       3.081       3.534       3.820       3.974       4.039    
        4.060       4.038       3.993       3.897       3.769       3.603       3.305       2.897       2.529       2.185    
        1.815       1.403       1.005      0.7313      0.5697      0.4312      0.3103      0.2353      0.1295       0.000    
  25    10.00       9.776       9.633       9.451       9.251       9.057       8.877       8.710       8.445       8.131    
        7.845       7.556       7.193       6.751       6.435       6.214       6.022       5.817       5.583       5.326    
        5.047       4.782       4.106       2.701     -0.4852       2.094       3.069       3.559       3.820       3.941    
        3.979       3.973       3.928       3.819       3.684       3.482       3.174       2.783       2.452       2.080    
        1.654       1.266      0.9400      0.7263      0.5940      0.4647      0.3397      0.2505      0.1635       0.000    
  26    10.00       9.808       9.673       9.479       9.273       9.103       8.917       8.705       8.435       8.190    
        7.943       7.559       7.102       6.727       6.496       6.296       6.067       5.802       5.553       5.333    
        5.118       4.825       4.201       3.179       2.105       2.625       3.189       3.545       3.767       3.898    
        3.934       3.927       3.865       3.759       3.630       3.412       3.010       2.649       2.369       1.913    
        1.449       1.127      0.9343      0.7896      0.6485      0.5047      0.3744      0.2744      0.1639       0.000    
  27    10.00       9.851       9.687       9.522       9.338       9.142       8.958       8.754       8.512       8.278    
        7.948       7.496       7.101       6.794       6.590       6.366       6.066       5.774       5.571       5.396    
        5.215       4.912       4.443       3.877       3.274       3.290       3.487       3.674       3.817       3.898    
        3.918       3.901       3.841       3.732       3.557       3.217       2.837       2.551       2.117       1.665    
        1.330       1.116      0.9752      0.8525      0.7223      0.5564      0.4009      0.3001      0.2017       0.000    
  28    10.00       9.865       9.727       9.569       9.403       9.218       9.027       8.822       8.595       8.325    
        7.923       7.513       7.170       6.875       6.663       6.437       6.179       5.892       5.621       5.446    
        5.284       5.066       4.753       4.326       3.943       3.770       3.779       3.865       3.903       3.932    
        3.928       3.896       3.824       3.667       3.407       3.049       2.720       2.327       1.895       1.590    
        1.341       1.164       1.024      0.9019      0.7679      0.6090      0.4548      0.3418      0.2084       0.000    
  29    10.00       9.871       9.741       9.623       9.464       9.295       9.112       8.906       8.666       8.306    
        7.912       7.554       7.229       6.985       6.741       6.497       6.261       6.031       5.767       5.538    
        5.363       5.179       4.962       4.699       4.349       4.162       4.090       4.060       4.044       4.008    
        3.960       3.891       3.795       3.583       3.265       2.934       2.583       2.181       1.846       1.621    
        1.416       1.220       1.066      0.9468      0.8162      0.6532      0.4940      0.3618      0.2110       0.000    
  30    10.00       9.883       9.775       9.672       9.534       9.379       9.216       8.989       8.690       8.325    
        7.919       7.557       7.285       7.045       6.806       6.569       6.371       6.172       5.933       5.688    
        5.477       5.307       5.118       4.928       4.705       4.502       4.419       4.289       4.216       4.114    
        3.999       3.881       3.733       3.506       3.232       2.910       2.543       2.165       1.915       1.705    
        1.471       1.277       1.129      0.9865      0.8393      0.6947      0.5275      0.3778      0.2283       0.000    
  31    10.00       9.903       9.811       9.715       9.615       9.493       9.317       9.050       8.707       8.329    
        7.938       7.601       7.344       7.099       6.886       6.666       6.458       6.305       6.075       5.838    
        5.636       5.459       5.292       5.120       4.978       4.816       4.657       4.509       4.360       4.212    
        4.039       3.866       3.707       3.513       3.236       2.895       2.539       2.221       2.013       1.824    
        1.581       1.357       1.183       1.032      0.8848      0.7312      0.5630      0.4045      0.2227       0.000    
  32    10.00       9.919       9.848       9.765       9.668       9.559       9.386       9.087       8.767       8.422    
        8.010       7.661       7.405       7.175       6.961       6.777       6.592       6.398       6.212       5.986    
        5.773       5.580       5.418       5.260       5.129       5.015       4.837       4.668       4.476       4.274    
        4.083       3.900       3.716       3.522       3.257       2.945       2.643       2.360       2.137       1.924    
        1.699       1.463       1.277       1.099      0.9297      0.7898      0.6171      0.4068      0.2022       0.000    
  33    10.00       9.930       9.873       9.806       9.713       9.590       9.372       9.085       8.817       8.501    
        8.102       7.756       7.492       7.243       7.047       6.887       6.723       6.530       6.323       6.117    
        5.893       5.688       5.499       5.343       5.236       5.122       4.958       4.756       4.558       4.361    
        4.166       3.988       3.795       3.543       3.289       3.002       2.741       2.513       2.281       2.049    
        1.838       1.613       1.407       1.220       1.030      0.8628      0.6681      0.4188      0.1974       0.000    
  34    10.00       9.938       9.899       9.842       9.728       9.561       9.353       9.141       8.867       8.526    
        8.178       7.842       7.562       7.316       7.137       7.009       6.835       6.642       6.418       6.224    
        6.023       5.781       5.592       5.446       5.338       5.210       5.025       4.842       4.634       4.420    
        4.255       4.087       3.915       3.663       3.393       3.126       2.885       2.680       2.439       2.203    
        1.998       1.791       1.571       1.379       1.176      0.9784      0.7284      0.4685      0.2470       0.000    
  35    10.00       9.949       9.905       9.833       9.695       9.520       9.369       9.190       8.941       8.576    
        8.208       7.901       7.622       7.407       7.250       7.107       6.929       6.718       6.503       6.289    
        6.108       5.896       5.704       5.567       5.450       5.323       5.120       4.897       4.679       4.476    
        4.349       4.194       4.005       3.813       3.577       3.288       3.039       2.870       2.622       2.351    
        2.156       1.948       1.738       1.548       1.320       1.099      0.8449      0.5642      0.2819       0.000    
  36    10.00       9.946       9.886       9.806       9.669       9.504       9.369       9.205       8.958       8.622    
        8.241       7.912       7.701       7.525       7.377       7.203       6.991       6.789       6.565       6.311    
        6.120       5.954       5.787       5.668       5.552       5.401       5.192       4.959       4.737       4.541    
        4.410       4.280       4.100       3.914       3.709       3.445       3.190       2.998       2.779       2.484    
        2.263       2.053       1.838       1.680       1.460       1.213      0.9586      0.6643      0.3380       0.000    
  37    10.00       9.931       9.865       9.778       9.642       9.492       9.342       9.185       8.961       8.602    
        8.221       7.948       7.814       7.647       7.455       7.283       7.049       6.807       6.545       6.297    
        6.139       6.006       5.850       5.730       5.597       5.425       5.231       4.996       4.794       4.634    
        4.487       4.340       4.153       3.988       3.773       3.520       3.316       3.127       2.881       2.589    
        2.324       2.117       1.944       1.767       1.558       1.327       1.082      0.7513      0.4071       0.000    
  38    10.00       9.924       9.840       9.748       9.623       9.478       9.314       9.151       8.916       8.586    
        8.294       8.072       7.899       7.751       7.540       7.286       7.027       6.750       6.474       6.306    
        6.181       6.026       5.885       5.777       5.640       5.444       5.214       5.000       4.869       4.735    
        4.573       4.404       4.220       4.049       3.838       3.600       3.414       3.222       2.930       2.623    
        2.391       2.198       2.022       1.843       1.656       1.433       1.179      0.8608      0.4467       0.000    
  39    10.00       9.905       9.820       9.730       9.608       9.448       9.272       9.102       8.890       8.624    
        8.396       8.229       8.038       7.832       7.541       7.221       6.909       6.617       6.446       6.330    
        6.173       6.012       5.908       5.809       5.684       5.461       5.222       5.064       4.944       4.806    
        4.635       4.470       4.282       4.096       3.914       3.713       3.498       3.275       2.972       2.667    
        2.423       2.229       2.091       1.948       1.744       1.515       1.260      0.9131      0.4473       0.000    
  40    10.00       9.890       9.808       9.718       9.596       9.430       9.251       9.079       8.899       8.679    
        8.490       8.349       8.122       7.806       7.446       7.093       6.777       6.571       6.451       6.322    
        6.153       6.011       5.915       5.806       5.661       5.483       5.311       5.147       5.003       4.875    
        4.717       4.530       4.336       4.158       3.987       3.783       3.551       3.325       2.995       2.661    
        2.440       2.276       2.132       2.009       1.803       1.548       1.313      0.9493      0.4688       0.000    
  41    10.00       9.898       9.803       9.705       9.571       9.421       9.264       9.112       8.939       8.743    
        8.565       8.399       8.105       7.712       7.317       6.996       6.742       6.564       6.442       6.299    
        6.130       6.007       5.906       5.790       5.659       5.524       5.394       5.236       5.065       4.916    
        4.773       4.592       4.395       4.231       4.051       3.851       3.613       3.297       2.930       2.673    
        2.492       2.321       2.187       2.032       1.814       1.562       1.354       1.008      0.5162       0.000    
  42    10.00       9.902       9.797       9.707       9.591       9.451       9.296       9.126       8.972       8.823    
        8.616       8.328       7.964       7.561       7.206       6.956       6.736       6.566       6.428       6.258    
        6.101       5.989       5.888       5.802       5.685       5.584       5.462       5.283       5.102       4.967    
        4.837       4.642       4.428       4.274       4.119       3.894       3.589       3.211       2.884       2.686    
        2.541       2.396       2.230       2.029       1.802       1.599       1.389       1.050      0.5402       0.000    
  43    10.00       9.904       9.808       9.716       9.624       9.501       9.346       9.180       9.015       8.807    
        8.520       8.192       7.820       7.432       7.153       6.943       6.735       6.560       6.395       6.227    
        6.079       5.974       5.896       5.827       5.725       5.612       5.495       5.322       5.157       5.045    
        4.881       4.666       4.464       4.311       4.134       3.860       3.501       3.135       2.907       2.750    
        2.596       2.439       2.237       2.019       1.812       1.615       1.426       1.047      0.4717       0.000    
  44    10.00       9.898       9.811       9.731       9.631       9.538       9.407       9.208       8.989       8.708    
        8.418       8.073       7.667       7.384       7.166       6.935       6.709       6.513       6.334       6.184    
        6.077       5.991       5.915       5.844       5.755       5.642       5.504       5.366       5.238       5.095    
        4.938       4.743       4.515       4.299       4.092       3.812       3.436       3.120       2.936       2.784    
        2.636       2.463       2.261       2.066       1.849       1.631       1.384      0.8966      0.3963       0.000    
  45    10.00       9.898       9.827       9.736       9.642       9.558       9.372       9.147       8.893       8.616    
        8.372       7.960       7.581       7.369       7.150       6.898       6.645       6.445       6.287       6.177    
        6.099       6.021       5.942       5.856       5.761       5.658       5.542       5.424       5.319       5.173    
        4.984       4.776       4.545       4.284       4.048       3.743       3.391       3.140       2.989       2.836    
        2.645       2.445       2.267       2.091       1.901       1.666       1.248      0.7520      0.3809       0.000    
  46    10.00       9.916       9.840       9.744       9.640       9.485       9.290       9.105       8.873       8.601    
        8.252       7.873       7.569       7.304       7.080       6.833       6.581       6.424       6.304       6.202    
        6.129       6.058       5.965       5.861       5.768       5.675       5.580       5.475       5.370       5.237    
        5.062       4.844       4.587       4.293       3.964       3.636       3.377       3.206       3.037       2.862    
        2.641       2.432       2.256       2.114       1.910       1.582       1.120      0.7088      0.3602       0.000    
  47    10.00       9.935       9.864       9.764       9.587       9.399       9.232       9.074       8.867       8.529    
        8.153       7.801       7.508       7.286       7.046       6.772       6.555       6.415       6.320       6.235    
        6.158       6.075       5.984       5.882       5.788       5.708       5.623       5.519       5.398       5.267    
        5.112       4.919       4.590       4.200       3.889       3.646       3.421       3.273       3.118       2.875    
        2.612       2.392       2.227       2.112       1.856       1.465       1.041      0.6825      0.3503       0.000    
  48    10.00       9.943       9.869       9.719       9.540       9.385       9.207       9.047       8.826       8.471    
        8.062       7.742       7.505       7.240       6.961       6.715       6.551       6.415       6.324       6.261    
        6.184       6.085       5.984       5.895       5.820       5.752       5.671       5.556       5.413       5.260    
        5.100       4.880       4.540       4.219       3.946       3.705       3.493       3.327       3.127       2.836    
        2.557       2.381       2.242       2.026       1.685       1.334      0.9941      0.6877      0.3700       0.000    
  49    10.00       9.940       9.834       9.700       9.554       9.374       9.195       9.016       8.742       8.367    
        8.014       7.715       7.429       7.178       6.963       6.731       6.520       6.396       6.336       6.276    
        6.203       6.091       5.979       5.905       5.843       5.790       5.699       5.560       5.399       5.253    
        5.085       4.816       4.528       4.313       4.063       3.780       3.525       3.323       3.093       2.782    
        2.556       2.401       2.195       1.869       1.566       1.279      0.9831      0.6878      0.3689       0.000    
  50    10.00       9.932       9.822       9.685       9.553       9.385       9.185       8.961       8.674       8.377    
        8.008       7.634       7.369       7.168       6.987       6.725       6.491       6.399       6.345       6.284    
        6.212       6.097       5.981       5.910       5.857       5.808       5.705       5.547       5.384       5.244    
        5.073       4.795       4.572       4.379       4.118       3.838       3.571       3.295       2.980       2.718    
        2.602       2.426       2.108       1.781       1.554       1.277      0.9970      0.6739      0.3005       0.000    

 HEAD WILL BE SAVED ON UNIT   51 AT END OF TIME STEP  92, STRESS PERIOD    2

 DRAWDOWN WILL BE SAVED ON UNIT   52 AT END OF TIME STEP  92, STRESS PERIOD    2
1
  VOLUMETRIC BUDGET FOR ENTIRE MODEL AT END OF TIME STEP 92 IN STRESS PERIOD   2
  ------------------------------------------------------------------------------

     CUMULATIVE VOLUMES      L**3       RATES FOR THIS TIME STEP      L**3/T
     ------------------                 ------------------------

           IN:                                      IN:
           ---                                      ---
             STORAGE =       42161.6641               STORAGE =         376.6939
       CONSTANT HEAD =       58684.1172         CONSTANT HEAD =         693.5463
               WELLS =           0.0000                 WELLS =           0.0000

            TOTAL IN =      100845.7812              TOTAL IN =        1070.2402

          OUT:                                     OUT:
          ----                                     ----
             STORAGE =       9.4320E-03               STORAGE =           0.0000
       CONSTANT HEAD =       54845.7617         CONSTANT HEAD =         570.2400
               WELLS =       46000.0000                 WELLS =         500.0000

           TOTAL OUT =      100845.7734             TOTAL OUT =        1070.2400

            IN - OUT =       7.8125E-03              IN - OUT =       2.4414E-04

 PERCENT DISCREPANCY =           0.00     PERCENT DISCREPANCY =           0.00






          TIME SUMMARY AT END OF TIME STEP  92 IN STRESS PERIOD    2
                    SECONDS     MINUTES      HOURS       DAYS        YEARS
                    -----------------------------------------------------------
   TIME STEP LENGTH  86400.      1440.0      24.000      1.0000     2.73785E-03
 STRESS PERIOD TIME 7.94880E+06 1.32480E+05  2208.0      92.000     0.25188    
         TOTAL TIME 8.03520E+06 1.33920E+05  2232.0      93.000     0.25462    
1
 
 SOLVING FOR HEAD 

 OUTPUT CONTROL FOR STRESS PERIOD    2   TIME STEP  93
    SAVE HEAD FOR ALL LAYERS
    SAVE DRAWDOWN FOR ALL LAYERS
    SAVE BUDGET
    PRINT HEAD FOR ALL LAYERS
    PRINT BUDGET
 UBDSV1 SAVING "         STORAGE" ON UNIT  53 AT TIME STEP 93, STRESS PERIOD   2
 UBDSV2 SAVING "   CONSTANT HEAD" ON UNIT  53 AT TIME STEP 93, STRESS PERIOD   2
 UBDSV1 SAVING "FLOW RIGHT FACE " ON UNIT  53 AT TIME STEP 93, STRESS PERIOD   2
 UBDSV1 SAVING "FLOW FRONT FACE " ON UNIT  53 AT TIME STEP 93, STRESS PERIOD   2
1
              HEAD IN LAYER   1 AT END OF TIME STEP  93 IN STRESS PERIOD    2
  ---------------------------------------------------------------------------

            1           2           3           4           5           6           7           8           9          10
           11          12          13          14          15          16          17          18          19          20
           21          22          23          24          25          26          27          28          29          30
           31          32          33          34          35          36          37          38          39          40
           41          42          43          44          45          46          47          48          49          50
 ........................................................................................................................
   1    10.00       9.953       9.885       9.808       9.734       9.649       9.569       9.490       9.391       9.293    
        9.218       9.144       9.069       8.996       8.878       8.737       8.579       8.454       8.390       8.317    
        8.229       8.160       8.093       8.015       7.913       7.714       7.489       7.333       7.181       7.039    
        6.856       6.562       6.187       5.771       5.341       4.884       4.433       4.058       3.570       3.039    
        2.604       2.190       1.730       1.345       1.109      0.9095      0.7515      0.6371      0.4276       0.000    
   2    10.00       9.952       9.891       9.813       9.737       9.663       9.583       9.479       9.370       9.290    
        9.225       9.162       9.099       9.009       8.874       8.725       8.576       8.454       8.388       8.305    
        8.217       8.165       8.111       8.030       7.900       7.704       7.500       7.339       7.187       7.048    
        6.843       6.535       6.141       5.667       5.208       4.767       4.376       4.014       3.517       3.003    
        2.568       2.102       1.684       1.383       1.161      0.9898      0.7942      0.6200      0.3459       0.000    
   3    10.00       9.945       9.884       9.815       9.749       9.673       9.570       9.461       9.384       9.312    
        9.239       9.181       9.126       9.038       8.900       8.717       8.555       8.455       8.378       8.294    
        8.223       8.168       8.111       8.003       7.861       7.685       7.508       7.382       7.203       7.023    
        6.764       6.398       5.945       5.484       5.080       4.671       4.290       3.900       3.383       2.908    
        2.536       2.109       1.728       1.454       1.235       1.057      0.8259      0.5539      0.2512       0.000    
   4    10.00       9.945       9.885       9.818       9.743       9.654       9.549       9.465       9.399       9.325    
        9.261       9.213       9.151       9.051       8.917       8.721       8.552       8.459       8.373       8.298    
        8.220       8.152       8.080       7.965       7.824       7.667       7.505       7.348       7.188       6.983    
        6.656       6.168       5.685       5.337       5.004       4.583       4.126       3.669       3.257       2.902    
        2.555       2.162       1.805       1.559       1.313       1.088      0.8020      0.4979      0.2385       0.000    
   5    10.00       9.941       9.881       9.805       9.729       9.647       9.552       9.479       9.411       9.342    
        9.286       9.239       9.157       9.041       8.891       8.713       8.570       8.468       8.382       8.280    
        8.187       8.113       8.024       7.913       7.787       7.624       7.462       7.318       7.158       6.905    
        6.430       5.879       5.493       5.222       4.893       4.440       3.969       3.557       3.253       2.934    
        2.596       2.237       1.886       1.658       1.395       1.070      0.7295      0.4437      0.2231       0.000    
   6    10.00       9.933       9.861       9.798       9.729       9.639       9.559       9.497       9.424       9.359    
        9.306       9.249       9.145       9.014       8.883       8.734       8.589       8.471       8.357       8.238    
        8.144       8.056       7.979       7.878       7.717       7.556       7.426       7.279       7.055       6.667    
        6.140       5.639       5.319       5.087       4.789       4.341       3.876       3.536       3.279       2.993    
        2.689       2.375       2.018       1.714       1.365       1.009      0.6436      0.3824      0.2105       0.000    
   7    10.00       9.920       9.850       9.791       9.719       9.645       9.573       9.514       9.447       9.383    
        9.318       9.231       9.117       8.993       8.869       8.752       8.599       8.436       8.305       8.188    
        8.089       8.005       7.938       7.810       7.644       7.510       7.377       7.175       6.807       6.308    
        5.807       5.405       5.192       4.987       4.641       4.220       3.911       3.585       3.310       3.126    
        2.841       2.507       2.088       1.654       1.264      0.8747      0.5535      0.3847      0.1981       0.000    
   8    10.00       9.919       9.856       9.789       9.717       9.651       9.588       9.528       9.467       9.405    
        9.319       9.207       9.095       8.977       8.862       8.729       8.537       8.366       8.258       8.146    
        8.035       7.963       7.863       7.723       7.578       7.437       7.211       6.894       6.425       5.988    
        5.618       5.315       5.123       4.888       4.518       4.174       3.895       3.656       3.448       3.239    
        2.962       2.542       2.029       1.566       1.161      0.8174      0.5851      0.3763      0.1804       0.000    
   9    10.00       9.932       9.855       9.782       9.728       9.673       9.610       9.546       9.478       9.411    
        9.311       9.184       9.061       8.943       8.819       8.662       8.475       8.317       8.201       8.086    
        7.988       7.894       7.757       7.624       7.487       7.311       6.981       6.554       6.116       5.799    
        5.497       5.252       5.041       4.749       4.409       4.124       3.914       3.742       3.557       3.329    
        2.997       2.539       2.018       1.560       1.167      0.8342      0.5897      0.3792      0.1940       0.000    
  10    10.00       9.929       9.848       9.788       9.738       9.685       9.628       9.573       9.493       9.394    
        9.272       9.137       9.019       8.909       8.781       8.586       8.389       8.252       8.146       8.039    
        7.947       7.816       7.664       7.513       7.352       7.091       6.664       6.224       5.856       5.602    
        5.411       5.207       4.949       4.655       4.343       4.109       3.954       3.806       3.606       3.343    
        2.962       2.490       2.015       1.626       1.260      0.9162      0.6073      0.4024      0.2163       0.000    
  11    10.00       9.913       9.848       9.798       9.749       9.703       9.651       9.573       9.463       9.351    
        9.229       9.097       8.988       8.853       8.678       8.491       8.330       8.209       8.112       8.003    
        7.865       7.696       7.489       7.316       7.043       6.676       6.314       5.994       5.690       5.506    
        5.359       5.095       4.817       4.575       4.340       4.165       4.007       3.817       3.570       3.252    
        2.895       2.532       2.080       1.698       1.352       1.011      0.6811      0.3947      0.1656       0.000    
  12    10.00       9.916       9.855       9.803       9.761       9.713       9.652       9.543       9.415       9.307    
        9.193       9.055       8.921       8.761       8.606       8.435       8.279       8.175       8.066       7.914    
        7.680       7.427       7.182       6.938       6.573       6.298       6.098       5.785       5.537       5.404    
        5.238       4.990       4.765       4.544       4.381       4.214       4.016       3.784       3.485       3.168    
        2.868       2.542       2.107       1.734       1.409       1.054      0.7149      0.3714      0.1233       0.000    
  13    10.00       9.932       9.874       9.819       9.768       9.711       9.613       9.487       9.366       9.256    
        9.127       8.992       8.852       8.684       8.514       8.353       8.240       8.109       7.964       7.659    
        7.304       7.036       6.767       6.441       6.164       6.035       5.810       5.535       5.404       5.283    
        5.090       4.880       4.705       4.546       4.407       4.252       4.017       3.707       3.422       3.127    
        2.843       2.508       2.042       1.696       1.418       1.042      0.6551      0.3195      9.7806E-02   0.000    
  14    10.00       9.947       9.897       9.838       9.768       9.673       9.545       9.418       9.309       9.187    
        9.054       8.928       8.769       8.592       8.441       8.302       8.128       7.956       7.664       7.210    
        6.870       6.613       6.254       6.002       5.877       5.762       5.540       5.373       5.245       5.118    
        4.952       4.808       4.687       4.554       4.406       4.256       3.989       3.655       3.363       3.060    
        2.773       2.358       1.917       1.647       1.332      0.9938      0.6533      0.2946      8.3923E-02   0.000    
  15    10.00       9.958       9.906       9.839       9.754       9.615       9.459       9.347       9.245       9.124    
        9.020       8.890       8.684       8.483       8.343       8.123       7.901       7.721       7.273       6.779    
        6.475       6.132       5.833       5.742       5.679       5.533       5.345       5.191       5.093       4.997    
        4.875       4.772       4.676       4.560       4.416       4.234       3.923       3.553       3.250       2.978    
        2.672       2.256       1.912       1.577       1.203      0.9071      0.5819      0.2692      9.1078E-02   0.000    
  16    10.00       9.965       9.908       9.825       9.700       9.534       9.395       9.306       9.215       9.093    
        8.968       8.773       8.515       8.321       8.120       7.865       7.718       7.350       6.723       6.295    
        6.032       5.742       5.639       5.589       5.469       5.280       5.135       5.061       5.019       4.939    
        4.838       4.746       4.664       4.546       4.372       4.123       3.768       3.455       3.220       2.939    
        2.587       2.180       1.812       1.447       1.128      0.8011      0.5205      0.2711      9.6781E-02   0.000    
  17    10.00       9.959       9.891       9.779       9.637       9.464       9.341       9.263       9.154       9.024    
        8.796       8.523       8.309       8.111       7.850       7.597       7.286       6.701       6.187       5.925    
        5.721       5.573       5.502       5.379       5.192       5.059       5.019       5.000       4.959       4.879    
        4.791       4.712       4.625       4.504       4.250       3.926       3.656       3.458       3.235       2.897    
        2.454       2.059       1.719       1.378       1.009      0.6666      0.4426      0.2455      0.1023       0.000    
  18    10.00       9.942       9.853       9.724       9.535       9.389       9.302       9.185       9.052       8.856    
        8.565       8.339       8.139       7.836       7.497       7.150       6.717       6.214       5.904       5.707    
        5.555       5.426       5.312       5.144       5.017       4.979       4.963       4.943       4.887       4.810    
        4.738       4.658       4.548       4.359       4.098       3.843       3.638       3.478       3.197       2.781    
        2.357       1.948       1.606       1.287      0.9340      0.6135      0.3735      0.2049      9.5638E-02   0.000    
  19    10.00       9.922       9.819       9.629       9.442       9.356       9.246       9.093       8.930       8.707    
        8.450       8.227       7.903       7.472       7.122       6.784       6.323       5.921       5.727       5.600    
        5.440       5.277       5.147       5.008       4.942       4.924       4.903       4.859       4.790       4.724    
        4.653       4.565       4.421       4.233       4.026       3.815       3.644       3.439       3.039       2.631    
        2.297       1.880       1.512       1.203      0.8565      0.5520      0.3357      0.1942      9.7266E-02   0.000    
  20    10.00       9.898       9.740       9.543       9.405       9.307       9.184       9.020       8.826       8.618    
        8.351       8.017       7.580       7.187       6.879       6.478       6.064       5.860       5.698       5.524    
        5.351       5.180       5.020       4.919       4.874       4.838       4.786       4.741       4.673       4.613    
        4.544       4.456       4.314       4.155       3.975       3.800       3.620       3.300       2.885       2.542    
        2.173       1.769       1.443       1.135      0.8133      0.4957      0.2915      0.1959      9.8976E-02   0.000    
  21    10.00       9.839       9.676       9.515       9.370       9.259       9.123       8.914       8.717       8.516    
        8.167       7.748       7.341       7.020       6.691       6.309       6.015       5.838       5.652       5.462    
        5.251       5.057       4.916       4.813       4.736       4.667       4.625       4.583       4.512       4.466    
        4.420       4.329       4.212       4.080       3.924       3.758       3.505       3.185       2.830       2.426    
        2.056       1.678       1.397       1.115      0.7070      0.4189      0.2987      0.2181      0.1049       0.000    
  22    10.00       9.815       9.623       9.465       9.342       9.209       9.010       8.802       8.626       8.361    
        7.994       7.558       7.208       6.942       6.583       6.231       5.984       5.802       5.618       5.389    
        5.145       4.949       4.767       4.606       4.502       4.452       4.418       4.361       4.338       4.312    
        4.278       4.211       4.126       4.007       3.867       3.708       3.447       3.134       2.717       2.321    
        2.003       1.661       1.350      0.9307      0.5833      0.4204      0.3163      0.2105      8.3685E-02   0.000    
  23    10.00       9.773       9.586       9.455       9.320       9.121       8.897       8.735       8.513       8.237    
        7.865       7.479       7.209       6.873       6.486       6.180       5.972       5.805       5.597       5.322    
        5.062       4.831       4.589       4.301       4.047       3.996       4.068       4.103       4.151       4.169    
        4.157       4.116       4.045       3.951       3.819       3.655       3.414       3.027       2.591       2.266    
        1.963       1.575       1.127      0.7629      0.5700      0.4320      0.3164      0.2010      9.3619E-02   0.000    
  24    10.00       9.742       9.606       9.455       9.264       9.046       8.870       8.693       8.476       8.159    
        7.818       7.517       7.219       6.815       6.407       6.165       5.993       5.819       5.567       5.290    
        5.032       4.766       4.396       3.735       2.740       3.071       3.523       3.810       3.964       4.028    
        4.050       4.028       3.983       3.888       3.760       3.595       3.297       2.890       2.524       2.180    
        1.811       1.400       1.003      0.7301      0.5687      0.4305      0.3098      0.2349      0.1293       0.000    
  25    10.00       9.775       9.631       9.449       9.249       9.054       8.874       8.706       8.441       8.126    
        7.839       7.549       7.186       6.743       6.427       6.205       6.013       5.808       5.574       5.317    
        5.037       4.772       4.096       2.690     -0.4965       2.083       3.058       3.548       3.810       3.931    
        3.969       3.963       3.918       3.809       3.675       3.474       3.166       2.777       2.447       2.075    
        1.650       1.263      0.9383      0.7251      0.5930      0.4639      0.3392      0.2501      0.1633       0.000    
  26    10.00       9.808       9.672       9.477       9.270       9.100       8.913       8.701       8.430       8.185    
        7.938       7.552       7.095       6.718       6.487       6.288       6.058       5.792       5.544       5.323    
        5.108       4.815       4.191       3.168       2.094       2.615       3.178       3.535       3.756       3.887    
        3.924       3.917       3.855       3.750       3.621       3.404       3.003       2.643       2.363       1.909    
        1.447       1.125      0.9328      0.7884      0.6474      0.5039      0.3738      0.2740      0.1636       0.000    
  27    10.00       9.850       9.686       9.520       9.336       9.139       8.954       8.750       8.507       8.273    
        7.942       7.490       7.093       6.786       6.582       6.357       6.057       5.765       5.562       5.386    
        5.205       4.903       4.433       3.867       3.263       3.279       3.477       3.663       3.807       3.888    
        3.908       3.892       3.831       3.723       3.548       3.209       2.831       2.546       2.112       1.662    
        1.327       1.115      0.9736      0.8512      0.7212      0.5555      0.4002      0.2996      0.2014       0.000    
  28    10.00       9.864       9.726       9.568       9.401       9.215       9.024       8.819       8.591       8.320    
        7.917       7.506       7.162       6.867       6.655       6.428       6.171       5.883       5.612       5.437    
        5.274       5.057       4.743       4.316       3.932       3.759       3.769       3.855       3.893       3.922    
        3.918       3.887       3.815       3.658       3.399       3.042       2.715       2.322       1.891       1.587    
        1.339       1.163       1.022      0.9006      0.7667      0.6081      0.4541      0.3413      0.2081       0.000    
  29    10.00       9.871       9.740       9.622       9.462       9.293       9.109       8.903       8.662       8.302    
        7.906       7.548       7.222       6.977       6.733       6.489       6.253       6.022       5.758       5.529    
        5.354       5.170       4.952       4.689       4.339       4.152       4.080       4.050       4.033       3.998    
        3.950       3.882       3.786       3.575       3.258       2.928       2.578       2.177       1.843       1.619    
        1.414       1.218       1.064      0.9454      0.8150      0.6522      0.4933      0.3613      0.2106       0.000    
  30    10.00       9.883       9.775       9.671       9.533       9.377       9.214       8.986       8.686       8.321    
        7.914       7.551       7.278       7.038       6.799       6.561       6.363       6.164       5.924       5.678    
        5.468       5.298       5.109       4.919       4.695       4.492       4.409       4.279       4.206       4.104    
        3.990       3.872       3.725       3.499       3.226       2.905       2.538       2.162       1.912       1.702    
        1.469       1.276       1.127      0.9851      0.8381      0.6937      0.5267      0.3773      0.2280       0.000    
  31    10.00       9.903       9.810       9.714       9.614       9.492       9.315       9.047       8.703       8.324    
        7.933       7.595       7.337       7.092       6.879       6.659       6.450       6.297       6.067       5.830    
        5.627       5.450       5.283       5.110       4.968       4.807       4.647       4.500       4.350       4.203    
        4.031       3.859       3.701       3.507       3.231       2.890       2.535       2.217       2.010       1.821    
        1.578       1.355       1.181       1.030      0.8836      0.7303      0.5622      0.4040      0.2224       0.000    
  32    10.00       9.919       9.848       9.764       9.667       9.558       9.384       9.084       8.763       8.418    
        8.005       7.655       7.398       7.168       6.954       6.769       6.584       6.390       6.204       5.977    
        5.764       5.571       5.409       5.251       5.120       5.006       4.828       4.659       4.467       4.266    
        4.076       3.893       3.710       3.516       3.252       2.940       2.639       2.356       2.134       1.921    
        1.696       1.461       1.275       1.097      0.9285      0.7888      0.6163      0.4062      0.2020       0.000    
  33    10.00       9.930       9.873       9.806       9.712       9.589       9.371       9.082       8.814       8.497    
        8.097       7.750       7.486       7.237       7.040       6.880       6.715       6.523       6.315       6.109    
        5.885       5.679       5.491       5.334       5.227       5.113       4.950       4.747       4.551       4.354    
        4.159       3.982       3.789       3.537       3.284       2.998       2.738       2.510       2.278       2.046    
        1.835       1.611       1.405       1.218       1.029      0.8619      0.6674      0.4184      0.1972       0.000    
  34    10.00       9.938       9.899       9.841       9.728       9.560       9.351       9.139       8.864       8.522    
        8.173       7.837       7.556       7.310       7.130       7.002       6.828       6.635       6.410       6.216    
        6.015       5.773       5.584       5.438       5.330       5.202       5.017       4.835       4.627       4.414    
        4.250       4.081       3.909       3.659       3.389       3.122       2.882       2.677       2.436       2.201    
        1.996       1.789       1.569       1.377       1.175      0.9775      0.7277      0.4680      0.2467       0.000    
  35    10.00       9.949       9.905       9.833       9.694       9.519       9.368       9.188       8.939       8.573    
        8.204       7.896       7.617       7.401       7.244       7.100       6.922       6.711       6.496       6.282    
        6.101       5.889       5.696       5.559       5.442       5.316       5.113       4.891       4.673       4.470    
        4.343       4.189       4.001       3.809       3.573       3.284       3.036       2.867       2.619       2.349    
        2.154       1.946       1.736       1.547       1.319       1.098      0.8443      0.5637      0.2817       0.000    
  36    10.00       9.946       9.886       9.805       9.669       9.503       9.368       9.203       8.956       8.618    
        8.237       7.908       7.696       7.519       7.371       7.197       6.985       6.782       6.559       6.304    
        6.113       5.947       5.780       5.661       5.545       5.394       5.186       4.953       4.732       4.536    
        4.405       4.276       4.096       3.910       3.706       3.442       3.187       2.996       2.776       2.482    
        2.261       2.051       1.837       1.679       1.459       1.212      0.9579      0.6639      0.3377       0.000    
  37    10.00       9.931       9.865       9.778       9.641       9.491       9.340       9.183       8.958       8.599    
        8.217       7.944       7.809       7.642       7.449       7.278       7.043       6.801       6.539       6.290    
        6.132       6.000       5.844       5.723       5.590       5.419       5.225       4.991       4.789       4.630    
        4.483       4.336       4.150       3.984       3.770       3.517       3.313       3.125       2.879       2.587    
        2.322       2.116       1.943       1.765       1.557       1.326       1.081      0.7509      0.4069       0.000    
  38    10.00       9.924       9.839       9.748       9.623       9.477       9.313       9.149       8.914       8.584    
        8.291       8.068       7.895       7.746       7.535       7.281       7.022       6.744       6.469       6.301    
        6.175       6.020       5.880       5.772       5.635       5.439       5.209       4.996       4.866       4.731    
        4.569       4.401       4.217       4.046       3.835       3.597       3.411       3.220       2.927       2.621    
        2.390       2.196       2.020       1.842       1.655       1.432       1.179      0.8603      0.4465       0.000    
  39    10.00       9.904       9.820       9.730       9.608       9.447       9.271       9.101       8.888       8.622    
        8.393       8.226       8.034       7.827       7.537       7.216       6.904       6.612       6.441       6.325    
        6.168       6.007       5.904       5.804       5.680       5.457       5.218       5.060       4.940       4.802    
        4.631       4.466       4.278       4.093       3.911       3.711       3.496       3.272       2.970       2.665    
        2.422       2.227       2.089       1.947       1.743       1.514       1.259      0.9126      0.4471       0.000    
  40    10.00       9.889       9.808       9.718       9.596       9.429       9.249       9.078       8.897       8.676    
        8.488       8.346       8.118       7.802       7.442       7.088       6.772       6.567       6.447       6.318    
        6.149       6.007       5.910       5.801       5.657       5.480       5.308       5.143       4.999       4.871    
        4.714       4.527       4.333       4.155       3.985       3.781       3.549       3.323       2.993       2.659    
        2.438       2.275       2.131       2.008       1.802       1.547       1.312      0.9488      0.4686       0.000    
  41    10.00       9.898       9.803       9.704       9.570       9.420       9.263       9.110       8.937       8.741    
        8.562       8.396       8.102       7.709       7.313       6.992       6.738       6.560       6.438       6.295    
        6.126       6.003       5.903       5.786       5.655       5.521       5.390       5.233       5.062       4.913    
        4.770       4.590       4.392       4.228       4.048       3.848       3.610       3.295       2.929       2.671    
        2.490       2.320       2.186       2.031       1.813       1.561       1.353       1.007      0.5160       0.000    
  42    10.00       9.902       9.797       9.706       9.590       9.450       9.294       9.125       8.971       8.821    
        8.614       8.326       7.962       7.559       7.203       6.953       6.732       6.563       6.424       6.254    
        6.098       5.986       5.885       5.798       5.682       5.581       5.458       5.280       5.098       4.964    
        4.834       4.639       4.426       4.271       4.117       3.892       3.587       3.209       2.882       2.685    
        2.540       2.395       2.229       2.028       1.801       1.598       1.388       1.049      0.5400       0.000    
  43    10.00       9.904       9.808       9.716       9.624       9.500       9.345       9.179       9.013       8.806    
        8.518       8.190       7.818       7.429       7.151       6.940       6.732       6.557       6.391       6.224    
        6.076       5.971       5.893       5.824       5.722       5.609       5.492       5.319       5.155       5.042    
        4.878       4.663       4.461       4.308       4.131       3.857       3.499       3.133       2.905       2.749    
        2.595       2.438       2.236       2.018       1.811       1.614       1.426       1.046      0.4714       0.000    
  44    10.00       9.898       9.811       9.731       9.631       9.537       9.406       9.207       8.988       8.706    
        8.417       8.071       7.665       7.381       7.164       6.932       6.706       6.510       6.331       6.181    
        6.074       5.987       5.912       5.841       5.752       5.639       5.501       5.363       5.235       5.092    
        4.935       4.740       4.513       4.297       4.089       3.809       3.434       3.118       2.934       2.783    
        2.635       2.462       2.259       2.065       1.848       1.630       1.383      0.8962      0.3961       0.000    
  45    10.00       9.898       9.827       9.735       9.641       9.558       9.371       9.146       8.891       8.614    
        8.371       7.958       7.579       7.366       7.147       6.895       6.642       6.442       6.284       6.174    
        6.096       6.018       5.939       5.853       5.758       5.655       5.539       5.421       5.316       5.171    
        4.982       4.773       4.543       4.282       4.046       3.741       3.389       3.139       2.987       2.835    
        2.643       2.443       2.266       2.090       1.900       1.665       1.248      0.7517      0.3808       0.000    
  46    10.00       9.916       9.840       9.743       9.640       9.484       9.289       9.104       8.871       8.600    
        8.250       7.871       7.567       7.301       7.078       6.830       6.578       6.422       6.301       6.199    
        6.127       6.055       5.962       5.858       5.765       5.672       5.577       5.473       5.367       5.235    
        5.059       4.841       4.585       4.291       3.961       3.634       3.375       3.204       3.035       2.860    
        2.640       2.431       2.254       2.113       1.909       1.582       1.119      0.7085      0.3600       0.000    
  47    10.00       9.935       9.864       9.764       9.586       9.399       9.232       9.074       8.866       8.528    
        8.152       7.799       7.506       7.283       7.044       6.769       6.552       6.412       6.317       6.233    
        6.155       6.073       5.981       5.879       5.785       5.705       5.621       5.516       5.396       5.264    
        5.109       4.916       4.587       4.197       3.887       3.644       3.419       3.272       3.117       2.873    
        2.611       2.391       2.226       2.111       1.856       1.464       1.040      0.6822      0.3502       0.000    
  48    10.00       9.943       9.869       9.719       9.540       9.384       9.206       9.046       8.825       8.470    
        8.060       7.740       7.503       7.238       6.959       6.713       6.549       6.412       6.321       6.259    
        6.181       6.082       5.981       5.892       5.817       5.749       5.668       5.553       5.410       5.257    
        5.097       4.877       4.537       4.217       3.944       3.703       3.492       3.325       3.126       2.834    
        2.556       2.379       2.241       2.025       1.684       1.333      0.9936      0.6874      0.3698       0.000    
  49    10.00       9.940       9.834       9.700       9.554       9.373       9.194       9.015       8.741       8.365    
        8.012       7.713       7.427       7.175       6.961       6.729       6.517       6.394       6.333       6.273    
        6.201       6.089       5.976       5.903       5.840       5.787       5.696       5.558       5.396       5.250    
        5.083       4.814       4.525       4.311       4.061       3.778       3.523       3.322       3.091       2.781    
        2.555       2.400       2.194       1.869       1.565       1.278      0.9827      0.6875      0.3688       0.000    
  50    10.00       9.932       9.822       9.685       9.553       9.384       9.184       8.960       8.673       8.375    
        8.006       7.632       7.367       7.166       6.984       6.723       6.488       6.396       6.342       6.281    
        6.209       6.094       5.979       5.907       5.855       5.805       5.703       5.544       5.381       5.242    
        5.070       4.793       4.569       4.377       4.116       3.836       3.569       3.293       2.978       2.717    
        2.601       2.425       2.107       1.780       1.554       1.276      0.9966      0.6736      0.3003       0.000    

 HEAD WILL BE SAVED ON UNIT   51 AT END OF TIME STEP  93, STRESS PERIOD    2

 DRAWDOWN WILL BE SAVED ON UNIT   52 AT END OF TIME STEP  93, STRESS PERIOD    2
1
  VOLUMETRIC BUDGET FOR ENTIRE MODEL AT END OF TIME STEP 93 IN STRESS PERIOD   2
  ------------------------------------------------------------------------------

     CUMULATIVE VOLUMES      L**3       RATES FOR THIS TIME STEP      L**3/T
     ------------------                 ------------------------

           IN:                                      IN:
           ---                                      ---
             STORAGE =       42536.2500               STORAGE =         374.5864
       CONSTANT HEAD =       59379.1328         CONSTANT HEAD =         695.0166
               WELLS =           0.0000                 WELLS =           0.0000

            TOTAL IN =      101915.3828              TOTAL IN =        1069.6030

          OUT:                                     OUT:
          ----                                     ----
             STORAGE =       9.4320E-03               STORAGE =           0.0000
       CONSTANT HEAD =       55415.3633         CONSTANT HEAD =         569.6034
               WELLS =       46500.0000                 WELLS =         500.0000

           TOTAL OUT =      101915.3750             TOTAL OUT =        1069.6034

            IN - OUT =       7.8125E-03              IN - OUT =      -3.6621E-04

 PERCENT DISCREPANCY =           0.00     PERCENT DISCREPANCY =           0.00






          TIME SUMMARY AT END OF TIME STEP  93 IN STRESS PERIOD    2
                    SECONDS     MINUTES      HOURS       DAYS        YEARS
                    -----------------------------------------------------------
   TIME STEP LENGTH  86400.      1440.0      24.000      1.0000     2.73785E-03
 STRESS PERIOD TIME 8.03520E+06 1.33920E+05  2232.0      93.000     0.25462    
         TOTAL TIME 8.12160E+06 1.35360E+05  2256.0      94.000     0.25736    
1
 
 SOLVING FOR HEAD 

 OUTPUT CONTROL FOR STRESS PERIOD    2   TIME STEP  94
    SAVE HEAD FOR ALL LAYERS
    SAVE DRAWDOWN FOR ALL LAYERS
    SAVE BUDGET
    PRINT HEAD FOR ALL LAYERS
    PRINT BUDGET
 UBDSV1 SAVING "         STORAGE" ON UNIT  53 AT TIME STEP 94, STRESS PERIOD   2
 UBDSV2 SAVING "   CONSTANT HEAD" ON UNIT  53 AT TIME STEP 94, STRESS PERIOD   2
 UBDSV1 SAVING "FLOW RIGHT FACE " ON UNIT  53 AT TIME STEP 94, STRESS PERIOD   2
 UBDSV1 SAVING "FLOW FRONT FACE " ON UNIT  53 AT TIME STEP 94, STRESS PERIOD   2
1
              HEAD IN LAYER   1 AT END OF TIME STEP  94 IN STRESS PERIOD    2
  ---------------------------------------------------------------------------

            1           2           3           4           5           6           7           8           9          10
           11          12          13          14          15          16          17          18          19          20
           21          22          23          24          25          26          27          28          29          30
           31          32          33          34          35          36          37          38          39          40
           41          42          43          44          45          46          47          48          49          50
 ........................................................................................................................
   1    10.00       9.953       9.885       9.808       9.733       9.648       9.568       9.489       9.389       9.292    
        9.216       9.143       9.067       8.994       8.876       8.734       8.576       8.451       8.387       8.313    
        8.226       8.156       8.089       8.012       7.910       7.710       7.485       7.329       7.177       7.035    
        6.852       6.558       6.183       5.767       5.337       4.880       4.429       4.054       3.567       3.036    
        2.602       2.187       1.728       1.344       1.108      0.9085      0.7506      0.6364      0.4271       0.000    
   2    10.00       9.951       9.890       9.813       9.737       9.662       9.582       9.478       9.369       9.289    
        9.223       9.160       9.097       9.007       8.871       8.722       8.574       8.450       8.385       8.302    
        8.214       8.162       8.107       8.027       7.896       7.700       7.496       7.335       7.183       7.044    
        6.839       6.531       6.137       5.663       5.204       4.763       4.372       4.010       3.514       3.000    
        2.565       2.100       1.682       1.381       1.160      0.9887      0.7933      0.6193      0.3455       0.000    
   3    10.00       9.945       9.884       9.815       9.748       9.672       9.569       9.460       9.382       9.310    
        9.237       9.180       9.124       9.036       8.898       8.714       8.552       8.452       8.375       8.291    
        8.219       8.165       8.108       7.999       7.857       7.682       7.504       7.378       7.199       7.019    
        6.760       6.393       5.940       5.480       5.076       4.667       4.286       3.896       3.380       2.905    
        2.533       2.107       1.726       1.452       1.233       1.056      0.8250      0.5533      0.2509       0.000    
   4    10.00       9.945       9.885       9.818       9.742       9.654       9.548       9.464       9.397       9.323    
        9.259       9.211       9.149       9.049       8.914       8.719       8.549       8.456       8.370       8.294    
        8.217       8.148       8.076       7.961       7.820       7.663       7.501       7.344       7.184       6.979    
        6.652       6.163       5.681       5.332       5.000       4.579       4.122       3.665       3.253       2.899    
        2.553       2.159       1.803       1.557       1.312       1.087      0.8010      0.4974      0.2383       0.000    
   5    10.00       9.941       9.880       9.805       9.728       9.646       9.551       9.478       9.409       9.340    
        9.284       9.237       9.155       9.039       8.889       8.711       8.567       8.465       8.379       8.277    
        8.183       8.109       8.020       7.909       7.783       7.620       7.458       7.313       7.154       6.900    
        6.425       5.874       5.488       5.217       4.888       4.436       3.965       3.553       3.249       2.930    
        2.593       2.234       1.883       1.656       1.393       1.069      0.7287      0.4431      0.2229       0.000    
   6    10.00       9.933       9.861       9.798       9.728       9.638       9.558       9.496       9.423       9.358    
        9.305       9.247       9.144       9.012       8.881       8.731       8.586       8.468       8.353       8.234    
        8.140       8.052       7.975       7.874       7.712       7.551       7.422       7.274       7.050       6.662    
        6.135       5.634       5.313       5.082       4.784       4.336       3.872       3.531       3.276       2.990    
        2.686       2.372       2.016       1.712       1.364       1.008      0.6428      0.3820      0.2103       0.000    
   7    10.00       9.920       9.850       9.791       9.719       9.644       9.572       9.513       9.446       9.382    
        9.317       9.229       9.115       8.991       8.867       8.749       8.596       8.433       8.301       8.185    
        8.086       8.001       7.934       7.806       7.640       7.505       7.373       7.170       6.802       6.302    
        5.802       5.400       5.186       4.981       4.636       4.215       3.906       3.580       3.306       3.122    
        2.837       2.504       2.086       1.652       1.263      0.8736      0.5528      0.3842      0.1978       0.000    
   8    10.00       9.919       9.856       9.789       9.716       9.650       9.587       9.527       9.465       9.403    
        9.317       9.206       9.093       8.975       8.859       8.726       8.534       8.362       8.254       8.142    
        8.031       7.959       7.859       7.719       7.573       7.432       7.206       6.889       6.420       5.982    
        5.613       5.309       5.117       4.882       4.512       4.168       3.890       3.651       3.443       3.235    
        2.958       2.539       2.027       1.564       1.160      0.8163      0.5844      0.3759      0.1802       0.000    
   9    10.00       9.932       9.855       9.781       9.728       9.672       9.609       9.545       9.477       9.410    
        9.310       9.182       9.059       8.940       8.817       8.659       8.471       8.314       8.197       8.082    
        7.984       7.890       7.753       7.619       7.483       7.306       6.975       6.549       6.110       5.793    
        5.491       5.246       5.035       4.744       4.403       4.118       3.909       3.737       3.552       3.325    
        2.993       2.536       2.015       1.558       1.166      0.8331      0.5889      0.3787      0.1937       0.000    
  10    10.00       9.928       9.847       9.788       9.737       9.684       9.627       9.572       9.492       9.392    
        9.270       9.135       9.017       8.906       8.778       8.583       8.386       8.249       8.142       8.035    
        7.943       7.812       7.659       7.508       7.347       7.086       6.659       6.218       5.849       5.595    
        5.404       5.200       4.943       4.649       4.337       4.103       3.949       3.801       3.601       3.338    
        2.958       2.486       2.012       1.624       1.259      0.9149      0.6065      0.4018      0.2161       0.000    
  11    10.00       9.913       9.847       9.798       9.748       9.702       9.650       9.572       9.462       9.350    
        9.227       9.095       8.985       8.851       8.675       8.488       8.327       8.205       8.108       7.999    
        7.860       7.691       7.484       7.310       7.037       6.670       6.308       5.987       5.683       5.499    
        5.352       5.088       4.811       4.569       4.334       4.160       4.001       3.812       3.565       3.247    
        2.891       2.528       2.077       1.695       1.350       1.010      0.6802      0.3942      0.1654       0.000    
  12    10.00       9.916       9.855       9.802       9.760       9.712       9.651       9.542       9.413       9.306    
        9.191       9.053       8.919       8.758       8.603       8.431       8.275       8.171       8.062       7.910    
        7.675       7.422       7.176       6.932       6.566       6.291       6.091       5.777       5.530       5.397    
        5.231       4.983       4.759       4.538       4.374       4.208       4.010       3.779       3.480       3.163    
        2.864       2.539       2.104       1.731       1.407       1.053      0.7139      0.3709      0.1231       0.000    
  13    10.00       9.932       9.874       9.818       9.768       9.710       9.612       9.486       9.364       9.254    
        9.125       8.989       8.849       8.681       8.511       8.349       8.236       8.105       7.960       7.654    
        7.298       7.030       6.760       6.434       6.156       6.028       5.802       5.527       5.397       5.276    
        5.082       4.873       4.697       4.539       4.400       4.245       4.011       3.701       3.417       3.122    
        2.839       2.504       2.039       1.693       1.416       1.040      0.6541      0.3190      9.7659E-02   0.000    
  14    10.00       9.947       9.897       9.838       9.767       9.672       9.544       9.417       9.307       9.185    
        9.051       8.925       8.766       8.589       8.438       8.298       8.124       7.951       7.659       7.204    
        6.864       6.606       6.247       5.995       5.869       5.754       5.532       5.365       5.237       5.110    
        4.944       4.800       4.679       4.547       4.399       4.249       3.983       3.649       3.358       3.055    
        2.769       2.354       1.914       1.644       1.330      0.9923      0.6522      0.2942      8.3790E-02   0.000    
  15    10.00       9.957       9.905       9.839       9.754       9.614       9.458       9.345       9.243       9.122    
        9.017       8.887       8.681       8.479       8.339       8.118       7.896       7.716       7.267       6.772    
        6.468       6.125       5.825       5.734       5.671       5.525       5.337       5.182       5.085       4.989    
        4.867       4.764       4.668       4.552       4.409       4.227       3.916       3.547       3.244       2.972    
        2.667       2.252       1.909       1.574       1.201      0.9056      0.5810      0.2688      9.0928E-02   0.000    
  16    10.00       9.965       9.908       9.825       9.700       9.532       9.393       9.304       9.213       9.091    
        8.965       8.769       8.512       8.317       8.115       7.860       7.712       7.344       6.716       6.287    
        6.024       5.734       5.631       5.581       5.461       5.271       5.126       5.052       5.011       4.930    
        4.829       4.737       4.656       4.538       4.365       4.116       3.761       3.449       3.214       2.934    
        2.582       2.176       1.809       1.445       1.126      0.7997      0.5196      0.2706      9.6616E-02   0.000    
  17    10.00       9.959       9.890       9.779       9.636       9.462       9.339       9.261       9.151       9.021    
        8.793       8.519       8.304       8.106       7.845       7.591       7.280       6.694       6.179       5.917    
        5.713       5.564       5.493       5.370       5.183       5.050       5.010       4.991       4.950       4.870    
        4.783       4.704       4.617       4.496       4.242       3.919       3.649       3.452       3.229       2.892    
        2.450       2.056       1.715       1.376       1.007      0.6655      0.4419      0.2451      0.1021       0.000    
  18    10.00       9.942       9.853       9.723       9.533       9.387       9.300       9.183       9.049       8.852    
        8.561       8.335       8.133       7.830       7.491       7.143       6.709       6.206       5.896       5.698    
        5.546       5.417       5.302       5.135       5.008       4.970       4.954       4.934       4.877       4.801    
        4.729       4.649       4.539       4.351       4.090       3.835       3.631       3.471       3.191       2.776    
        2.353       1.944       1.603       1.285      0.9324      0.6124      0.3729      0.2045      9.5468E-02   0.000    
  19    10.00       9.921       9.818       9.628       9.440       9.354       9.243       9.090       8.927       8.703    
        8.446       8.222       7.898       7.466       7.115       6.776       6.315       5.912       5.718       5.591    
        5.431       5.268       5.137       4.999       4.932       4.915       4.894       4.850       4.780       4.715    
        4.644       4.556       4.412       4.224       4.018       3.808       3.637       3.433       3.033       2.626    
        2.293       1.877       1.509       1.200      0.8549      0.5510      0.3351      0.1939      9.7091E-02   0.000    
  20    10.00       9.898       9.740       9.542       9.403       9.305       9.181       9.017       8.822       8.614    
        8.346       8.012       7.573       7.180       6.871       6.469       6.055       5.851       5.689       5.515    
        5.341       5.171       5.011       4.910       4.865       4.828       4.777       4.731       4.663       4.603    
        4.534       4.447       4.305       4.147       3.967       3.792       3.612       3.293       2.879       2.537    
        2.169       1.766       1.441       1.133      0.8118      0.4948      0.2910      0.1955      9.8797E-02   0.000    
  21    10.00       9.838       9.675       9.513       9.368       9.256       9.121       8.911       8.713       8.512    
        8.162       7.742       7.334       7.013       6.683       6.300       6.007       5.829       5.643       5.453    
        5.241       5.047       4.907       4.803       4.726       4.658       4.616       4.574       4.502       4.457    
        4.411       4.319       4.202       4.071       3.915       3.750       3.498       3.179       2.824       2.421    
        2.052       1.675       1.395       1.112      0.7056      0.4182      0.2982      0.2177      0.1047       0.000    
  22    10.00       9.814       9.622       9.463       9.340       9.207       9.007       8.798       8.622       8.356    
        7.988       7.551       7.201       6.935       6.575       6.222       5.975       5.793       5.609       5.380    
        5.136       4.939       4.757       4.596       4.492       4.442       4.409       4.351       4.328       4.302    
        4.269       4.201       4.116       3.998       3.858       3.699       3.439       3.127       2.711       2.316    
        1.998       1.658       1.347      0.9289      0.5822      0.4196      0.3157      0.2102      8.3539E-02   0.000    
  23    10.00       9.772       9.584       9.453       9.317       9.118       8.894       8.731       8.509       8.232    
        7.859       7.472       7.201       6.865       6.477       6.171       5.963       5.796       5.587       5.312    
        5.053       4.821       4.579       4.292       4.037       3.986       4.058       4.092       4.141       4.159    
        4.147       4.106       4.036       3.942       3.810       3.647       3.407       3.020       2.586       2.262    
        1.959       1.572       1.125      0.7615      0.5690      0.4312      0.3159      0.2006      9.3460E-02   0.000    
  24    10.00       9.741       9.604       9.453       9.261       9.043       8.866       8.689       8.471       8.154    
        7.811       7.510       7.212       6.807       6.398       6.156       5.984       5.810       5.558       5.281    
        5.022       4.756       4.386       3.725       2.730       3.060       3.513       3.799       3.954       4.018    
        4.040       4.018       3.973       3.879       3.751       3.586       3.290       2.884       2.518       2.175    
        1.808       1.397       1.001      0.7288      0.5677      0.4298      0.3093      0.2345      0.1291       0.000    
  25    10.00       9.774       9.630       9.448       9.247       9.051       8.870       8.702       8.436       8.120    
        7.833       7.543       7.179       6.735       6.418       6.197       6.004       5.799       5.564       5.307    
        5.028       4.762       4.086       2.680     -0.5076       2.073       3.048       3.538       3.799       3.920    
        3.959       3.953       3.909       3.800       3.666       3.466       3.159       2.771       2.441       2.071    
        1.647       1.261      0.9367      0.7239      0.5920      0.4632      0.3386      0.2497      0.1630       0.000    
  26    10.00       9.807       9.671       9.475       9.268       9.097       8.910       8.697       8.426       8.180    
        7.932       7.546       7.087       6.710       6.479       6.279       6.049       5.783       5.534       5.314    
        5.098       4.806       4.181       3.158       2.084       2.604       3.167       3.524       3.746       3.877    
        3.914       3.907       3.846       3.740       3.612       3.396       2.996       2.637       2.358       1.905    
        1.444       1.123      0.9313      0.7871      0.6464      0.5031      0.3733      0.2735      0.1633       0.000    
  27    10.00       9.850       9.685       9.519       9.334       9.137       8.951       8.746       8.503       8.268    
        7.936       7.483       7.086       6.779       6.574       6.349       6.048       5.756       5.553       5.377    
        5.196       4.893       4.423       3.856       3.253       3.268       3.466       3.653       3.797       3.877    
        3.898       3.882       3.822       3.713       3.540       3.202       2.825       2.540       2.108       1.659    
        1.325       1.113      0.9721      0.8499      0.7201      0.5547      0.3996      0.2992      0.2011       0.000    
  28    10.00       9.864       9.725       9.566       9.399       9.213       9.021       8.815       8.586       8.315    
        7.911       7.500       7.155       6.860       6.647       6.420       6.162       5.874       5.603       5.427    
        5.265       5.047       4.733       4.306       3.922       3.749       3.758       3.845       3.883       3.912    
        3.908       3.877       3.805       3.649       3.391       3.036       2.709       2.318       1.888       1.585    
        1.337       1.161       1.021      0.8992      0.7656      0.6072      0.4534      0.3408      0.2078       0.000    
  29    10.00       9.870       9.739       9.621       9.461       9.291       9.107       8.900       8.658       8.297    
        7.901       7.542       7.215       6.970       6.726       6.480       6.245       6.014       5.749       5.520    
        5.345       5.160       4.943       4.679       4.329       4.142       4.070       4.040       4.023       3.988    
        3.941       3.873       3.778       3.567       3.251       2.922       2.573       2.173       1.840       1.616    
        1.412       1.216       1.063      0.9440      0.8138      0.6513      0.4926      0.3608      0.2103       0.000    
  30    10.00       9.883       9.774       9.670       9.532       9.375       9.212       8.983       8.683       8.316    
        7.908       7.545       7.272       7.031       6.791       6.553       6.355       6.155       5.916       5.669    
        5.459       5.289       5.099       4.909       4.685       4.482       4.399       4.269       4.197       4.095    
        3.981       3.864       3.718       3.492       3.220       2.900       2.534       2.159       1.909       1.700    
        1.467       1.274       1.126      0.9837      0.8369      0.6927      0.5260      0.3767      0.2277       0.000    
  31    10.00       9.903       9.810       9.713       9.613       9.490       9.313       9.045       8.700       8.319    
        7.927       7.589       7.330       7.085       6.871       6.651       6.442       6.289       6.058       5.821    
        5.618       5.440       5.274       5.101       4.959       4.797       4.638       4.490       4.341       4.194    
        4.023       3.852       3.694       3.501       3.225       2.885       2.531       2.214       2.007       1.819    
        1.576       1.353       1.179       1.029      0.8824      0.7293      0.5614      0.4035      0.2221       0.000    
  32    10.00       9.918       9.848       9.763       9.666       9.557       9.382       9.082       8.760       8.414    
        8.000       7.649       7.392       7.161       6.947       6.762       6.576       6.382       6.196       5.969    
        5.755       5.562       5.400       5.242       5.111       4.997       4.819       4.650       4.459       4.259    
        4.069       3.887       3.703       3.511       3.247       2.936       2.635       2.353       2.131       1.919    
        1.694       1.460       1.273       1.096      0.9274      0.7878      0.6155      0.4057      0.2017       0.000    
  33    10.00       9.930       9.872       9.805       9.712       9.588       9.369       9.080       8.811       8.493    
        8.092       7.745       7.479       7.230       7.033       6.873       6.708       6.515       6.307       6.100    
        5.877       5.670       5.482       5.326       5.218       5.104       4.941       4.739       4.543       4.347    
        4.153       3.976       3.783       3.532       3.279       2.993       2.734       2.506       2.275       2.044    
        1.833       1.610       1.403       1.217       1.028      0.8609      0.6666      0.4179      0.1970       0.000    
  34    10.00       9.937       9.899       9.841       9.727       9.559       9.350       9.137       8.862       8.518    
        8.169       7.832       7.551       7.304       7.124       6.996       6.821       6.628       6.403       6.209    
        6.007       5.765       5.576       5.430       5.322       5.194       5.009       4.827       4.620       4.408    
        4.244       4.076       3.904       3.654       3.384       3.118       2.878       2.674       2.434       2.199    
        1.994       1.788       1.568       1.376       1.174      0.9765      0.7270      0.4676      0.2465       0.000    
  35    10.00       9.949       9.905       9.833       9.694       9.518       9.366       9.186       8.936       8.569    
        8.199       7.892       7.611       7.395       7.238       7.094       6.915       6.704       6.489       6.274    
        6.094       5.881       5.689       5.551       5.435       5.308       5.106       4.884       4.667       4.465    
        4.338       4.184       3.996       3.805       3.569       3.281       3.033       2.864       2.617       2.347    
        2.152       1.944       1.735       1.546       1.318       1.097      0.8436      0.5633      0.2815       0.000    
  36    10.00       9.946       9.885       9.805       9.668       9.502       9.366       9.201       8.953       8.615    
        8.233       7.903       7.691       7.514       7.366       7.191       6.979       6.776       6.552       6.297    
        6.106       5.940       5.773       5.654       5.538       5.387       5.180       4.947       4.727       4.532    
        4.400       4.271       4.092       3.906       3.702       3.439       3.184       2.993       2.774       2.479    
        2.259       2.050       1.835       1.678       1.458       1.211      0.9573      0.6634      0.3375       0.000    
  37    10.00       9.930       9.864       9.777       9.640       9.490       9.339       9.181       8.956       8.596    
        8.213       7.939       7.804       7.637       7.444       7.272       7.037       6.795       6.533       6.284    
        6.126       5.994       5.838       5.717       5.584       5.413       5.220       4.987       4.785       4.626    
        4.479       4.332       4.146       3.981       3.767       3.514       3.310       3.122       2.876       2.585    
        2.320       2.114       1.941       1.764       1.556       1.325       1.080      0.7504      0.4066       0.000    
  38    10.00       9.924       9.839       9.747       9.622       9.476       9.311       9.147       8.912       8.581    
        8.287       8.064       7.890       7.741       7.530       7.275       7.016       6.739       6.463       6.295    
        6.170       6.015       5.874       5.766       5.630       5.434       5.205       4.992       4.862       4.727    
        4.566       4.397       4.213       4.042       3.832       3.594       3.408       3.217       2.925       2.619    
        2.388       2.195       2.019       1.841       1.654       1.431       1.178      0.8597      0.4462       0.000    
  39    10.00       9.904       9.820       9.729       9.607       9.446       9.270       9.099       8.886       8.619    
        8.389       8.222       8.030       7.823       7.532       7.211       6.899       6.608       6.436       6.320    
        6.163       6.002       5.899       5.799       5.675       5.453       5.214       5.056       4.937       4.799    
        4.628       4.463       4.275       4.090       3.909       3.708       3.493       3.270       2.967       2.663    
        2.420       2.226       2.088       1.946       1.742       1.514       1.258      0.9121      0.4468       0.000    
  40    10.00       9.889       9.807       9.717       9.595       9.428       9.248       9.076       8.895       8.674    
        8.485       8.343       8.115       7.798       7.438       7.084       6.768       6.563       6.442       6.314    
        6.144       6.002       5.906       5.797       5.653       5.476       5.304       5.140       4.996       4.868    
        4.710       4.524       4.330       4.153       3.982       3.778       3.546       3.320       2.991       2.658    
        2.437       2.274       2.130       2.007       1.801       1.546       1.312      0.9483      0.4683       0.000    
  41    10.00       9.898       9.803       9.704       9.570       9.419       9.262       9.109       8.935       8.739    
        8.560       8.393       8.099       7.705       7.310       6.988       6.735       6.556       6.434       6.291    
        6.122       5.999       5.899       5.783       5.652       5.518       5.387       5.229       5.058       4.910    
        4.767       4.587       4.389       4.226       4.046       3.846       3.608       3.293       2.927       2.670    
        2.489       2.319       2.185       2.030       1.812       1.560       1.352       1.007      0.5157       0.000    
  42    10.00       9.902       9.797       9.706       9.590       9.449       9.293       9.123       8.969       8.819    
        8.612       8.323       7.959       7.556       7.200       6.949       6.729       6.559       6.420       6.250    
        6.094       5.982       5.882       5.795       5.679       5.577       5.455       5.277       5.095       4.961    
        4.831       4.636       4.423       4.269       4.114       3.890       3.584       3.207       2.881       2.683    
        2.539       2.393       2.228       2.027       1.800       1.597       1.387       1.049      0.5397       0.000    
  43    10.00       9.904       9.808       9.715       9.623       9.500       9.344       9.178       9.012       8.804    
        8.516       8.187       7.815       7.426       7.148       6.937       6.729       6.554       6.388       6.220    
        6.073       5.968       5.890       5.821       5.719       5.606       5.489       5.316       5.152       5.039    
        4.875       4.660       4.459       4.306       4.129       3.855       3.496       3.132       2.904       2.747    
        2.593       2.436       2.235       2.017       1.810       1.613       1.425       1.046      0.4712       0.000    
  44    10.00       9.898       9.811       9.731       9.630       9.536       9.406       9.206       8.987       8.705    
        8.415       8.069       7.662       7.379       7.161       6.929       6.703       6.507       6.328       6.178    
        6.071       5.984       5.909       5.838       5.749       5.636       5.498       5.360       5.232       5.090    
        4.933       4.738       4.510       4.294       4.087       3.807       3.433       3.116       2.933       2.781    
        2.633       2.460       2.258       2.064       1.847       1.629       1.382      0.8957      0.3959       0.000    
  45    10.00       9.898       9.826       9.735       9.641       9.557       9.370       9.145       8.890       8.613    
        8.369       7.956       7.577       7.364       7.145       6.893       6.640       6.439       6.281       6.171    
        6.093       6.015       5.936       5.850       5.755       5.652       5.536       5.418       5.313       5.168    
        4.979       4.771       4.540       4.279       4.043       3.739       3.387       3.137       2.985       2.833    
        2.642       2.442       2.265       2.089       1.899       1.665       1.247      0.7513      0.3806       0.000    
  46    10.00       9.916       9.839       9.743       9.639       9.484       9.288       9.103       8.870       8.598    
        8.249       7.869       7.565       7.299       7.075       6.828       6.575       6.419       6.299       6.196    
        6.124       6.052       5.959       5.855       5.762       5.670       5.575       5.470       5.365       5.232    
        5.056       4.839       4.582       4.288       3.959       3.632       3.374       3.202       3.034       2.859    
        2.638       2.430       2.253       2.112       1.908       1.581       1.119      0.7081      0.3598       0.000    
  47    10.00       9.935       9.864       9.763       9.586       9.398       9.231       9.073       8.865       8.526    
        8.150       7.797       7.504       7.281       7.041       6.767       6.549       6.409       6.314       6.230    
        6.152       6.070       5.978       5.876       5.782       5.702       5.618       5.514       5.393       5.261    
        5.107       4.914       4.585       4.195       3.885       3.642       3.417       3.270       3.115       2.872    
        2.609       2.390       2.225       2.110       1.855       1.463       1.040      0.6818      0.3500       0.000    
  48    10.00       9.943       9.868       9.718       9.539       9.384       9.205       9.045       8.824       8.468    
        8.058       7.738       7.501       7.235       6.956       6.710       6.546       6.410       6.318       6.256    
        6.178       6.079       5.978       5.890       5.814       5.746       5.665       5.550       5.407       5.255    
        5.095       4.875       4.535       4.215       3.942       3.701       3.490       3.324       3.124       2.833    
        2.555       2.378       2.240       2.024       1.683       1.333      0.9932      0.6871      0.3697       0.000    
  49    10.00       9.940       9.833       9.700       9.553       9.372       9.193       9.014       8.740       8.364    
        8.010       7.711       7.425       7.173       6.958       6.726       6.514       6.391       6.330       6.270    
        6.198       6.086       5.973       5.900       5.838       5.784       5.693       5.555       5.394       5.248    
        5.080       4.811       4.523       4.308       4.059       3.776       3.521       3.320       3.090       2.779    
        2.554       2.399       2.193       1.868       1.564       1.278      0.9822      0.6872      0.3686       0.000    
  50    10.00       9.932       9.822       9.685       9.552       9.384       9.183       8.960       8.672       8.374    
        8.005       7.630       7.365       7.164       6.982       6.720       6.486       6.393       6.339       6.279    
        6.206       6.091       5.976       5.904       5.852       5.802       5.700       5.542       5.378       5.239    
        5.067       4.790       4.567       4.375       4.114       3.834       3.567       3.292       2.977       2.716    
        2.599       2.424       2.106       1.779       1.553       1.276      0.9962      0.6733      0.3002       0.000    

 HEAD WILL BE SAVED ON UNIT   51 AT END OF TIME STEP  94, STRESS PERIOD    2

 DRAWDOWN WILL BE SAVED ON UNIT   52 AT END OF TIME STEP  94, STRESS PERIOD    2
1
  VOLUMETRIC BUDGET FOR ENTIRE MODEL AT END OF TIME STEP 94 IN STRESS PERIOD   2
  ------------------------------------------------------------------------------

     CUMULATIVE VOLUMES      L**3       RATES FOR THIS TIME STEP      L**3/T
     ------------------                 ------------------------

           IN:                                      IN:
           ---                                      ---
             STORAGE =       42908.7344               STORAGE =         372.4852
       CONSTANT HEAD =       60075.6133         CONSTANT HEAD =         696.4796
               WELLS =           0.0000                 WELLS =           0.0000

            TOTAL IN =      102984.3438              TOTAL IN =        1068.9648

          OUT:                                     OUT:
          ----                                     ----
             STORAGE =       9.4320E-03               STORAGE =           0.0000
       CONSTANT HEAD =       55984.3281         CONSTANT HEAD =         568.9647
               WELLS =       47000.0000                 WELLS =         500.0000

           TOTAL OUT =      102984.3359             TOTAL OUT =        1068.9647

            IN - OUT =       7.8125E-03              IN - OUT =       1.2207E-04

 PERCENT DISCREPANCY =           0.00     PERCENT DISCREPANCY =           0.00






          TIME SUMMARY AT END OF TIME STEP  94 IN STRESS PERIOD    2
                    SECONDS     MINUTES      HOURS       DAYS        YEARS
                    -----------------------------------------------------------
   TIME STEP LENGTH  86400.      1440.0      24.000      1.0000     2.73785E-03
 STRESS PERIOD TIME 8.12160E+06 1.35360E+05  2256.0      94.000     0.25736    
         TOTAL TIME 8.20800E+06 1.36800E+05  2280.0      95.000     0.26010    
1
 
 SOLVING FOR HEAD 

 OUTPUT CONTROL FOR STRESS PERIOD    2   TIME STEP  95
    SAVE HEAD FOR ALL LAYERS
    SAVE DRAWDOWN FOR ALL LAYERS
    SAVE BUDGET
    PRINT HEAD FOR ALL LAYERS
    PRINT BUDGET
 UBDSV1 SAVING "         STORAGE" ON UNIT  53 AT TIME STEP 95, STRESS PERIOD   2
 UBDSV2 SAVING "   CONSTANT HEAD" ON UNIT  53 AT TIME STEP 95, STRESS PERIOD   2
 UBDSV1 SAVING "FLOW RIGHT FACE " ON UNIT  53 AT TIME STEP 95, STRESS PERIOD   2
 UBDSV1 SAVING "FLOW FRONT FACE " ON UNIT  53 AT TIME STEP 95, STRESS PERIOD   2
1
              HEAD IN LAYER   1 AT END OF TIME STEP  95 IN STRESS PERIOD    2
  ---------------------------------------------------------------------------

            1           2           3           4           5           6           7           8           9          10
           11          12          13          14          15          16          17          18          19          20
           21          22          23          24          25          26          27          28          29          30
           31          32          33          34          35          36          37          38          39          40
           41          42          43          44          45          46          47          48          49          50
 ........................................................................................................................
   1    10.00       9.952       9.885       9.808       9.733       9.648       9.567       9.488       9.388       9.290    
        9.215       9.141       9.065       8.992       8.874       8.731       8.573       8.448       8.384       8.310    
        8.222       8.153       8.085       8.008       7.906       7.706       7.481       7.325       7.173       7.031    
        6.847       6.554       6.179       5.763       5.333       4.876       4.425       4.051       3.564       3.033    
        2.599       2.185       1.726       1.342       1.107      0.9075      0.7498      0.6356      0.4267       0.000    
   2    10.00       9.951       9.890       9.812       9.736       9.661       9.581       9.477       9.367       9.287    
        9.222       9.158       9.095       9.004       8.869       8.720       8.571       8.447       8.382       8.299    
        8.211       8.158       8.104       8.023       7.893       7.696       7.492       7.331       7.178       7.040    
        6.835       6.527       6.133       5.658       5.200       4.759       4.368       4.007       3.510       2.997    
        2.563       2.098       1.680       1.380       1.159      0.9876      0.7924      0.6186      0.3452       0.000    
   3    10.00       9.945       9.884       9.815       9.748       9.671       9.568       9.458       9.381       9.309    
        9.236       9.178       9.122       9.034       8.896       8.712       8.549       8.449       8.372       8.288    
        8.216       8.161       8.104       7.996       7.853       7.678       7.500       7.373       7.195       7.014    
        6.755       6.389       5.936       5.476       5.071       4.663       4.282       3.892       3.376       2.902    
        2.530       2.104       1.724       1.450       1.232       1.055      0.8241      0.5527      0.2506       0.000    
   4    10.00       9.945       9.885       9.818       9.742       9.653       9.547       9.463       9.396       9.322    
        9.258       9.210       9.147       9.047       8.912       8.716       8.547       8.453       8.367       8.291    
        8.213       8.145       8.072       7.958       7.816       7.659       7.497       7.340       7.180       6.975    
        6.647       6.159       5.676       5.327       4.995       4.575       4.118       3.662       3.250       2.895    
        2.550       2.157       1.801       1.555       1.310       1.086      0.8001      0.4968      0.2380       0.000    
   5    10.00       9.941       9.880       9.804       9.728       9.645       9.550       9.477       9.408       9.339    
        9.283       9.236       9.153       9.037       8.887       8.708       8.564       8.462       8.376       8.274    
        8.180       8.106       8.017       7.905       7.779       7.615       7.454       7.309       7.149       6.895    
        6.421       5.869       5.483       5.212       4.883       4.432       3.961       3.549       3.245       2.927    
        2.590       2.231       1.881       1.654       1.391       1.068      0.7278      0.4426      0.2226       0.000    
   6    10.00       9.932       9.861       9.797       9.727       9.638       9.557       9.495       9.422       9.356    
        9.303       9.246       9.142       9.010       8.879       8.729       8.583       8.465       8.350       8.231    
        8.137       8.049       7.971       7.870       7.708       7.547       7.418       7.270       7.045       6.657    
        6.130       5.628       5.308       5.076       4.778       4.332       3.868       3.527       3.272       2.986    
        2.683       2.370       2.014       1.710       1.362       1.006      0.6421      0.3815      0.2100       0.000    
   7    10.00       9.919       9.849       9.790       9.718       9.643       9.571       9.512       9.445       9.380    
        9.315       9.228       9.113       8.989       8.864       8.746       8.593       8.430       8.298       8.181    
        8.082       7.997       7.931       7.802       7.635       7.501       7.368       7.166       6.797       6.297    
        5.796       5.394       5.181       4.976       4.631       4.210       3.901       3.576       3.302       3.119    
        2.834       2.501       2.083       1.650       1.261      0.8726      0.5521      0.3838      0.1976       0.000    
   8    10.00       9.918       9.855       9.788       9.716       9.649       9.586       9.526       9.464       9.402    
        9.316       9.204       9.091       8.972       8.857       8.724       8.531       8.359       8.250       8.138    
        8.027       7.955       7.854       7.714       7.569       7.427       7.201       6.883       6.414       5.977    
        5.607       5.303       5.111       4.877       4.507       4.163       3.885       3.646       3.439       3.231    
        2.955       2.536       2.024       1.562       1.159      0.8153      0.5837      0.3754      0.1800       0.000    
   9    10.00       9.931       9.854       9.781       9.727       9.671       9.608       9.544       9.476       9.409    
        9.308       9.180       9.056       8.938       8.814       8.656       8.468       8.310       8.194       8.078    
        7.980       7.886       7.749       7.615       7.478       7.301       6.970       6.543       6.104       5.786    
        5.485       5.240       5.029       4.738       4.398       4.113       3.904       3.732       3.548       3.320    
        2.989       2.533       2.012       1.555       1.164      0.8320      0.5881      0.3782      0.1935       0.000    
  10    10.00       9.928       9.847       9.787       9.737       9.683       9.626       9.571       9.490       9.391    
        9.268       9.134       9.015       8.904       8.775       8.580       8.383       8.245       8.138       8.031    
        7.939       7.807       7.655       7.503       7.342       7.081       6.653       6.212       5.843       5.589    
        5.398       5.194       4.937       4.643       4.332       4.098       3.944       3.795       3.596       3.334    
        2.954       2.483       2.010       1.621       1.257      0.9137      0.6057      0.4013      0.2158       0.000    
  11    10.00       9.913       9.847       9.798       9.748       9.702       9.649       9.571       9.461       9.348    
        9.225       9.093       8.983       8.848       8.672       8.485       8.323       8.202       8.104       7.995    
        7.856       7.687       7.479       7.305       7.031       6.664       6.301       5.981       5.676       5.492    
        5.346       5.081       4.804       4.563       4.328       4.154       3.996       3.807       3.560       3.243    
        2.886       2.525       2.074       1.693       1.348       1.008      0.6793      0.3936      0.1652       0.000    
  12    10.00       9.916       9.855       9.802       9.760       9.712       9.651       9.541       9.412       9.304    
        9.189       9.051       8.916       8.755       8.600       8.427       8.271       8.167       8.058       7.906    
        7.671       7.417       7.171       6.926       6.560       6.284       6.084       5.770       5.523       5.390    
        5.224       4.976       4.752       4.531       4.368       4.202       4.004       3.773       3.475       3.158    
        2.860       2.535       2.101       1.728       1.405       1.051      0.7129      0.3703      0.1229       0.000    
  13    10.00       9.932       9.874       9.818       9.767       9.710       9.611       9.484       9.363       9.252    
        9.122       8.987       8.846       8.678       8.507       8.346       8.232       8.101       7.956       7.649    
        7.293       7.024       6.754       6.427       6.149       6.021       5.795       5.520       5.389       5.268    
        5.075       4.865       4.690       4.532       4.394       4.239       4.005       3.696       3.412       3.117    
        2.835       2.500       2.036       1.691       1.414       1.039      0.6531      0.3185      9.7511E-02   0.000    
  14    10.00       9.947       9.897       9.837       9.767       9.671       9.543       9.415       9.305       9.183    
        9.049       8.923       8.763       8.585       8.434       8.294       8.119       7.947       7.654       7.198    
        6.857       6.599       6.239       5.987       5.861       5.746       5.524       5.357       5.229       5.102    
        4.937       4.792       4.672       4.540       4.392       4.242       3.977       3.643       3.352       3.050    
        2.764       2.350       1.910       1.642       1.328      0.9907      0.6512      0.2937      8.3657E-02   0.000    
  15    10.00       9.957       9.905       9.838       9.753       9.613       9.456       9.344       9.241       9.120    
        9.015       8.884       8.678       8.476       8.335       8.114       7.891       7.711       7.261       6.765    
        6.461       6.117       5.817       5.726       5.663       5.517       5.329       5.174       5.076       4.981    
        4.859       4.756       4.660       4.545       4.402       4.220       3.910       3.541       3.239       2.967    
        2.663       2.248       1.906       1.571       1.199      0.9041      0.5800      0.2683      9.0777E-02   0.000    
  16    10.00       9.965       9.908       9.824       9.699       9.531       9.391       9.302       9.210       9.088    
        8.962       8.766       8.508       8.313       8.110       7.854       7.707       7.338       6.709       6.280    
        6.016       5.725       5.622       5.572       5.452       5.262       5.117       5.044       5.002       4.922    
        4.821       4.729       4.648       4.530       4.357       4.109       3.755       3.442       3.209       2.929    
        2.578       2.173       1.806       1.442       1.124      0.7983      0.5187      0.2701      9.6451E-02   0.000    
  17    10.00       9.959       9.890       9.778       9.634       9.460       9.337       9.259       9.149       9.019    
        8.789       8.515       8.299       8.101       7.839       7.586       7.273       6.686       6.171       5.908    
        5.704       5.555       5.484       5.361       5.174       5.041       5.001       4.983       4.941       4.862    
        4.774       4.695       4.609       4.488       4.234       3.912       3.642       3.445       3.223       2.887    
        2.446       2.052       1.712       1.373       1.006      0.6643      0.4411      0.2446      0.1019       0.000    
  18    10.00       9.941       9.852       9.722       9.532       9.385       9.298       9.181       9.046       8.849    
        8.557       8.330       8.128       7.825       7.485       7.136       6.701       6.197       5.887       5.689    
        5.537       5.408       5.293       5.126       4.999       4.961       4.945       4.925       4.868       4.792    
        4.720       4.641       4.531       4.343       4.082       3.828       3.624       3.464       3.185       2.771    
        2.348       1.941       1.600       1.283      0.9307      0.6113      0.3722      0.2041      9.5299E-02   0.000    
  19    10.00       9.921       9.818       9.627       9.438       9.352       9.241       9.088       8.924       8.699    
        8.441       8.217       7.892       7.459       7.108       6.768       6.307       5.903       5.709       5.582    
        5.422       5.259       5.128       4.990       4.923       4.906       4.884       4.841       4.771       4.706    
        4.635       4.547       4.403       4.216       4.010       3.800       3.629       3.426       3.027       2.621    
        2.288       1.873       1.507       1.198      0.8533      0.5500      0.3345      0.1935      9.6917E-02   0.000    
  20    10.00       9.898       9.739       9.540       9.401       9.302       9.178       9.014       8.819       8.610    
        8.341       8.006       7.567       7.173       6.864       6.461       6.046       5.843       5.680       5.506    
        5.332       5.161       5.001       4.900       4.855       4.819       4.767       4.722       4.654       4.594    
        4.525       4.438       4.296       4.138       3.958       3.784       3.605       3.287       2.874       2.532    
        2.165       1.762       1.438       1.130      0.8102      0.4939      0.2905      0.1952      9.8619E-02   0.000    
  21    10.00       9.838       9.674       9.511       9.366       9.254       9.118       8.908       8.709       8.507    
        8.157       7.736       7.327       7.005       6.675       6.292       5.998       5.820       5.634       5.444    
        5.232       5.038       4.898       4.794       4.717       4.648       4.606       4.564       4.493       4.447    
        4.401       4.310       4.193       4.062       3.907       3.742       3.490       3.172       2.819       2.416    
        2.048       1.672       1.392       1.110      0.7043      0.4174      0.2977      0.2173      0.1045       0.000    
  22    10.00       9.814       9.620       9.462       9.338       9.204       9.004       8.794       8.618       8.351    
        7.982       7.545       7.194       6.927       6.567       6.214       5.967       5.784       5.600       5.371    
        5.127       4.930       4.747       4.587       4.483       4.433       4.399       4.342       4.318       4.292    
        4.259       4.191       4.107       3.989       3.849       3.691       3.431       3.120       2.706       2.311    
        1.994       1.654       1.344      0.9271      0.5811      0.4188      0.3152      0.2098      8.3393E-02   0.000    
  23    10.00       9.772       9.583       9.451       9.315       9.115       8.890       8.727       8.504       8.227    
        7.853       7.465       7.194       6.857       6.469       6.163       5.954       5.787       5.578       5.303    
        5.043       4.811       4.569       4.282       4.027       3.976       4.048       4.082       4.131       4.149    
        4.137       4.097       4.026       3.933       3.801       3.638       3.399       3.013       2.580       2.257    
        1.955       1.568       1.122      0.7601      0.5680      0.4305      0.3153      0.2003      9.3301E-02   0.000    
  24    10.00       9.740       9.603       9.451       9.259       9.040       8.863       8.685       8.467       8.148    
        7.805       7.504       7.205       6.799       6.390       6.147       5.975       5.801       5.549       5.271    
        5.013       4.747       4.376       3.715       2.720       3.050       3.503       3.789       3.944       4.008    
        4.030       4.008       3.964       3.869       3.742       3.578       3.282       2.877       2.512       2.171    
        1.804       1.395      0.9993      0.7275      0.5667      0.4290      0.3088      0.2341      0.1289       0.000    
  25    10.00       9.773       9.629       9.446       9.244       9.048       8.867       8.698       8.431       8.115    
        7.827       7.536       7.172       6.727       6.410       6.188       5.995       5.790       5.555       5.298    
        5.018       4.752       4.076       2.670     -0.5187       2.062       3.037       3.527       3.789       3.910    
        3.949       3.943       3.899       3.790       3.657       3.457       3.152       2.764       2.436       2.066    
        1.644       1.259      0.9351      0.7227      0.5911      0.4624      0.3381      0.2493      0.1627       0.000    
  26    10.00       9.806       9.670       9.473       9.266       9.094       8.907       8.694       8.421       8.175    
        7.926       7.539       7.080       6.702       6.471       6.270       6.041       5.774       5.525       5.305    
        5.089       4.796       4.171       3.148       2.073       2.593       3.157       3.514       3.736       3.867    
        3.904       3.897       3.836       3.731       3.603       3.387       2.989       2.631       2.353       1.901    
        1.441       1.121      0.9298      0.7858      0.6454      0.5023      0.3727      0.2731      0.1631       0.000    
  27    10.00       9.849       9.684       9.517       9.332       9.134       8.948       8.742       8.499       8.263    
        7.930       7.476       7.078       6.771       6.566       6.340       6.039       5.747       5.544       5.367    
        5.186       4.883       4.413       3.846       3.243       3.258       3.456       3.643       3.786       3.867    
        3.888       3.872       3.812       3.704       3.531       3.194       2.818       2.535       2.104       1.656    
        1.323       1.111      0.9706      0.8486      0.7190      0.5538      0.3990      0.2987      0.2008       0.000    
  28    10.00       9.863       9.724       9.565       9.397       9.211       9.018       8.812       8.582       8.310    
        7.905       7.493       7.148       6.852       6.639       6.412       6.154       5.865       5.594       5.418    
        5.255       5.038       4.723       4.296       3.912       3.738       3.748       3.834       3.872       3.902    
        3.898       3.867       3.796       3.640       3.383       3.029       2.703       2.313       1.885       1.582    
        1.335       1.159       1.019      0.8978      0.7644      0.6063      0.4528      0.3403      0.2075       0.000    
  29    10.00       9.870       9.739       9.620       9.459       9.289       9.104       8.897       8.654       8.292    
        7.895       7.535       7.208       6.962       6.718       6.472       6.236       6.005       5.740       5.510    
        5.335       5.151       4.933       4.670       4.319       4.132       4.060       4.029       4.013       3.978    
        3.931       3.864       3.769       3.560       3.244       2.916       2.568       2.170       1.837       1.614    
        1.409       1.214       1.061      0.9427      0.8126      0.6503      0.4919      0.3603      0.2100       0.000    
  30    10.00       9.882       9.773       9.669       9.530       9.374       9.210       8.980       8.679       8.311    
        7.903       7.538       7.265       7.024       6.784       6.545       6.347       6.147       5.907       5.660    
        5.450       5.279       5.090       4.899       4.675       4.472       4.389       4.259       4.187       4.085    
        3.972       3.856       3.710       3.485       3.214       2.895       2.530       2.155       1.906       1.697    
        1.464       1.272       1.124      0.9823      0.8357      0.6917      0.5253      0.3762      0.2273       0.000    
  31    10.00       9.902       9.809       9.712       9.612       9.489       9.311       9.042       8.696       8.315    
        7.922       7.583       7.324       7.078       6.864       6.643       6.434       6.281       6.050       5.812    
        5.609       5.431       5.264       5.091       4.950       4.788       4.628       4.481       4.332       4.185    
        4.015       3.845       3.687       3.495       3.220       2.881       2.527       2.211       2.004       1.816    
        1.574       1.351       1.178       1.027      0.8813      0.7283      0.5607      0.4029      0.2218       0.000    
  32    10.00       9.918       9.847       9.763       9.666       9.555       9.381       9.079       8.757       8.410    
        7.995       7.643       7.385       7.154       6.940       6.755       6.568       6.374       6.187       5.960    
        5.746       5.553       5.392       5.233       5.102       4.988       4.810       4.641       4.451       4.251    
        4.062       3.880       3.697       3.505       3.242       2.931       2.631       2.350       2.128       1.916    
        1.692       1.458       1.272       1.095      0.9262      0.7868      0.6147      0.4052      0.2015       0.000    
  33    10.00       9.930       9.872       9.805       9.711       9.587       9.367       9.078       8.808       8.489    
        8.088       7.739       7.473       7.224       7.026       6.866       6.701       6.507       6.299       6.092    
        5.868       5.662       5.474       5.317       5.210       5.096       4.933       4.731       4.536       4.340    
        4.147       3.970       3.778       3.527       3.275       2.989       2.730       2.503       2.272       2.041    
        1.831       1.608       1.402       1.215       1.027      0.8599      0.6659      0.4175      0.1968       0.000    
  34    10.00       9.937       9.899       9.840       9.726       9.558       9.348       9.134       8.859       8.515    
        8.164       7.827       7.545       7.298       7.117       6.989       6.814       6.620       6.395       6.201    
        5.999       5.757       5.568       5.422       5.313       5.186       5.001       4.820       4.614       4.402    
        4.238       4.070       3.899       3.649       3.380       3.114       2.875       2.671       2.431       2.196    
        1.992       1.786       1.566       1.375       1.173      0.9756      0.7263      0.4672      0.2463       0.000    
  35    10.00       9.948       9.905       9.832       9.693       9.517       9.365       9.184       8.933       8.566    
        8.195       7.887       7.606       7.390       7.232       7.087       6.909       6.697       6.482       6.267    
        6.086       5.874       5.681       5.544       5.427       5.301       5.099       4.877       4.661       4.459    
        4.333       4.179       3.992       3.801       3.565       3.277       3.030       2.861       2.614       2.345    
        2.150       1.942       1.733       1.544       1.317       1.096      0.8429      0.5629      0.2813       0.000    
  36    10.00       9.946       9.885       9.804       9.667       9.501       9.365       9.200       8.951       8.612    
        8.229       7.898       7.686       7.509       7.360       7.185       6.972       6.769       6.545       6.290    
        6.100       5.934       5.766       5.647       5.531       5.380       5.173       4.941       4.721       4.527    
        4.396       4.267       4.087       3.903       3.699       3.436       3.181       2.990       2.771       2.477    
        2.257       2.048       1.834       1.677       1.457       1.211      0.9566      0.6629      0.3373       0.000    
  37    10.00       9.930       9.864       9.777       9.639       9.489       9.337       9.179       8.954       8.593    
        8.209       7.935       7.800       7.632       7.438       7.266       7.031       6.789       6.527       6.278    
        6.120       5.988       5.832       5.711       5.578       5.407       5.214       4.982       4.781       4.621    
        4.475       4.328       4.142       3.977       3.763       3.511       3.307       3.119       2.874       2.583    
        2.318       2.113       1.940       1.763       1.555       1.324       1.080      0.7499      0.4064       0.000    
  38    10.00       9.924       9.839       9.747       9.621       9.475       9.310       9.146       8.910       8.578    
        8.284       8.060       7.886       7.737       7.525       7.270       7.011       6.733       6.458       6.290    
        6.164       6.009       5.869       5.761       5.624       5.429       5.200       4.988       4.858       4.723    
        4.562       4.394       4.210       4.039       3.829       3.592       3.406       3.215       2.923       2.617    
        2.386       2.194       2.018       1.840       1.653       1.430       1.177      0.8592      0.4459       0.000    
  39    10.00       9.904       9.819       9.729       9.606       9.445       9.268       9.097       8.884       8.616    
        8.386       8.219       8.026       7.819       7.527       7.206       6.894       6.603       6.431       6.315    
        6.158       5.997       5.894       5.795       5.670       5.448       5.211       5.053       4.933       4.795    
        4.624       4.460       4.272       4.087       3.906       3.705       3.491       3.268       2.965       2.661    
        2.418       2.224       2.087       1.945       1.741       1.513       1.257      0.9115      0.4466       0.000    
  40    10.00       9.889       9.807       9.717       9.594       9.428       9.247       9.075       8.893       8.672    
        8.482       8.340       8.112       7.794       7.434       7.080       6.764       6.558       6.438       6.309    
        6.140       5.998       5.902       5.793       5.649       5.472       5.301       5.136       4.992       4.864    
        4.707       4.520       4.327       4.150       3.979       3.776       3.544       3.318       2.989       2.656    
        2.435       2.272       2.128       2.005       1.799       1.546       1.311      0.9478      0.4681       0.000    
  41    10.00       9.898       9.802       9.703       9.569       9.418       9.261       9.107       8.933       8.737    
        8.557       8.390       8.096       7.702       7.306       6.985       6.731       6.552       6.430       6.287    
        6.118       5.995       5.895       5.779       5.648       5.514       5.384       5.226       5.055       4.907    
        4.764       4.584       4.387       4.223       4.043       3.843       3.606       3.290       2.925       2.668    
        2.487       2.317       2.184       2.029       1.811       1.559       1.352       1.006      0.5154       0.000    
  42    10.00       9.902       9.796       9.706       9.589       9.449       9.292       9.122       8.968       8.817    
        8.609       8.321       7.956       7.553       7.197       6.946       6.725       6.555       6.417       6.247    
        6.091       5.979       5.878       5.792       5.676       5.574       5.452       5.274       5.092       4.958    
        4.828       4.633       4.420       4.266       4.112       3.887       3.582       3.205       2.879       2.682    
        2.537       2.392       2.227       2.026       1.799       1.596       1.386       1.048      0.5394       0.000    
  43    10.00       9.904       9.807       9.715       9.623       9.499       9.344       9.176       9.011       8.802    
        8.514       8.185       7.813       7.424       7.145       6.933       6.725       6.551       6.385       6.217    
        6.069       5.965       5.887       5.818       5.715       5.603       5.486       5.313       5.149       5.036    
        4.872       4.657       4.456       4.303       4.126       3.853       3.494       3.130       2.902       2.745    
        2.592       2.435       2.234       2.016       1.809       1.613       1.424       1.045      0.4709       0.000    
  44    10.00       9.898       9.810       9.730       9.630       9.536       9.405       9.205       8.985       8.703    
        8.413       8.067       7.660       7.376       7.158       6.926       6.700       6.504       6.325       6.175    
        6.068       5.981       5.906       5.835       5.746       5.633       5.495       5.357       5.229       5.087    
        4.930       4.735       4.507       4.292       4.084       3.805       3.431       3.114       2.931       2.780    
        2.632       2.459       2.257       2.063       1.846       1.628       1.382      0.8952      0.3957       0.000    
  45    10.00       9.898       9.826       9.735       9.640       9.556       9.369       9.144       8.889       8.612    
        8.367       7.954       7.575       7.362       7.142       6.890       6.637       6.437       6.278       6.168    
        6.090       6.012       5.933       5.847       5.752       5.649       5.533       5.415       5.310       5.165    
        4.976       4.768       4.538       4.277       4.041       3.737       3.385       3.135       2.984       2.832    
        2.640       2.441       2.263       2.088       1.898       1.664       1.247      0.7509      0.3804       0.000    
  46    10.00       9.916       9.839       9.743       9.639       9.483       9.288       9.102       8.869       8.597    
        8.247       7.867       7.562       7.297       7.073       6.825       6.573       6.416       6.296       6.193    
        6.121       6.049       5.956       5.853       5.759       5.667       5.572       5.467       5.362       5.229    
        5.054       4.836       4.580       4.286       3.957       3.630       3.372       3.201       3.032       2.857    
        2.637       2.428       2.252       2.111       1.907       1.580       1.118      0.7078      0.3596       0.000    
  47    10.00       9.935       9.864       9.763       9.585       9.397       9.230       9.072       8.864       8.525    
        8.148       7.795       7.502       7.279       7.039       6.764       6.547       6.406       6.311       6.227    
        6.149       6.067       5.975       5.873       5.780       5.699       5.615       5.511       5.390       5.259    
        5.104       4.911       4.582       4.193       3.883       3.640       3.415       3.268       3.113       2.870    
        2.608       2.389       2.224       2.109       1.854       1.462       1.039      0.6815      0.3498       0.000    
  48    10.00       9.943       9.868       9.718       9.539       9.383       9.204       9.044       8.823       8.467    
        8.057       7.736       7.499       7.233       6.954       6.708       6.544       6.407       6.315       6.253    
        6.176       6.076       5.975       5.887       5.812       5.743       5.662       5.547       5.405       5.252    
        5.092       4.872       4.533       4.212       3.940       3.699       3.488       3.322       3.122       2.832    
        2.554       2.377       2.239       2.023       1.682       1.332      0.9927      0.6867      0.3695       0.000    
  49    10.00       9.940       9.833       9.699       9.553       9.372       9.192       9.013       8.739       8.363    
        8.009       7.709       7.423       7.171       6.956       6.724       6.512       6.388       6.328       6.267    
        6.195       6.083       5.970       5.897       5.835       5.781       5.690       5.552       5.391       5.245    
        5.078       4.809       4.521       4.306       4.057       3.774       3.519       3.318       3.088       2.778    
        2.553       2.398       2.192       1.867       1.564       1.277      0.9818      0.6869      0.3684       0.000    
  50    10.00       9.932       9.821       9.685       9.552       9.383       9.182       8.959       8.670       8.372    
        8.003       7.628       7.362       7.161       6.980       6.718       6.483       6.391       6.336       6.276    
        6.204       6.088       5.973       5.902       5.849       5.799       5.697       5.539       5.376       5.237    
        5.065       4.788       4.565       4.372       4.112       3.832       3.565       3.290       2.975       2.714    
        2.598       2.423       2.105       1.779       1.552       1.275      0.9957      0.6730      0.3000       0.000    

 HEAD WILL BE SAVED ON UNIT   51 AT END OF TIME STEP  95, STRESS PERIOD    2

 DRAWDOWN WILL BE SAVED ON UNIT   52 AT END OF TIME STEP  95, STRESS PERIOD    2
1
  VOLUMETRIC BUDGET FOR ENTIRE MODEL AT END OF TIME STEP 95 IN STRESS PERIOD   2
  ------------------------------------------------------------------------------

     CUMULATIVE VOLUMES      L**3       RATES FOR THIS TIME STEP      L**3/T
     ------------------                 ------------------------

           IN:                                      IN:
           ---                                      ---
             STORAGE =       43279.1211               STORAGE =         370.3885
       CONSTANT HEAD =       60773.5469         CONSTANT HEAD =         697.9350
               WELLS =           0.0000                 WELLS =           0.0000

            TOTAL IN =      104052.6719              TOTAL IN =        1068.3235

          OUT:                                     OUT:
          ----                                     ----
             STORAGE =       9.4320E-03               STORAGE =           0.0000
       CONSTANT HEAD =       56552.6523         CONSTANT HEAD =         568.3240
               WELLS =       47500.0000                 WELLS =         500.0000

           TOTAL OUT =      104052.6641             TOTAL OUT =        1068.3240

            IN - OUT =       7.8125E-03              IN - OUT =      -4.8828E-04

 PERCENT DISCREPANCY =           0.00     PERCENT DISCREPANCY =           0.00






          TIME SUMMARY AT END OF TIME STEP  95 IN STRESS PERIOD    2
                    SECONDS     MINUTES      HOURS       DAYS        YEARS
                    -----------------------------------------------------------
   TIME STEP LENGTH  86400.      1440.0      24.000      1.0000     2.73785E-03
 STRESS PERIOD TIME 8.20800E+06 1.36800E+05  2280.0      95.000     0.26010    
         TOTAL TIME 8.29440E+06 1.38240E+05  2304.0      96.000     0.26283    
1
 
 SOLVING FOR HEAD 

 OUTPUT CONTROL FOR STRESS PERIOD    2   TIME STEP  96
    SAVE HEAD FOR ALL LAYERS
    SAVE DRAWDOWN FOR ALL LAYERS
    SAVE BUDGET
    PRINT HEAD FOR ALL LAYERS
    PRINT BUDGET
 UBDSV1 SAVING "         STORAGE" ON UNIT  53 AT TIME STEP 96, STRESS PERIOD   2
 UBDSV2 SAVING "   CONSTANT HEAD" ON UNIT  53 AT TIME STEP 96, STRESS PERIOD   2
 UBDSV1 SAVING "FLOW RIGHT FACE " ON UNIT  53 AT TIME STEP 96, STRESS PERIOD   2
 UBDSV1 SAVING "FLOW FRONT FACE " ON UNIT  53 AT TIME STEP 96, STRESS PERIOD   2
1
              HEAD IN LAYER   1 AT END OF TIME STEP  96 IN STRESS PERIOD    2
  ---------------------------------------------------------------------------

            1           2           3           4           5           6           7           8           9          10
           11          12          13          14          15          16          17          18          19          20
           21          22          23          24          25          26          27          28          29          30
           31          32          33          34          35          36          37          38          39          40
           41          42          43          44          45          46          47          48          49          50
 ........................................................................................................................
   1    10.00       9.952       9.885       9.807       9.732       9.647       9.566       9.487       9.387       9.289    
        9.213       9.139       9.063       8.990       8.871       8.729       8.570       8.445       8.381       8.307    
        8.219       8.149       8.082       8.005       7.902       7.702       7.477       7.321       7.169       7.027    
        6.843       6.549       6.175       5.759       5.329       4.872       4.422       4.047       3.560       3.030    
        2.597       2.183       1.724       1.341       1.106      0.9065      0.7490      0.6349      0.4262       0.000    
   2    10.00       9.951       9.890       9.812       9.736       9.660       9.580       9.476       9.366       9.286    
        9.220       9.157       9.093       9.002       8.867       8.717       8.568       8.444       8.379       8.296    
        8.207       8.155       8.100       8.019       7.889       7.692       7.488       7.327       7.174       7.036    
        6.831       6.522       6.128       5.654       5.196       4.755       4.365       4.003       3.507       2.994    
        2.560       2.096       1.678       1.378       1.157      0.9865      0.7915      0.6179      0.3448       0.000    
   3    10.00       9.945       9.883       9.814       9.747       9.671       9.568       9.457       9.380       9.307    
        9.234       9.176       9.120       9.032       8.893       8.709       8.546       8.446       8.369       8.284    
        8.213       8.158       8.101       7.992       7.850       7.674       7.496       7.369       7.190       7.010    
        6.751       6.385       5.931       5.471       5.067       4.659       4.278       3.889       3.373       2.899    
        2.528       2.102       1.722       1.449       1.230       1.054      0.8231      0.5521      0.2503       0.000    
   4    10.00       9.945       9.884       9.817       9.741       9.652       9.546       9.462       9.395       9.320    
        9.256       9.208       9.145       9.045       8.910       8.714       8.544       8.450       8.363       8.288    
        8.210       8.141       8.069       7.954       7.812       7.655       7.493       7.335       7.175       6.970    
        6.643       6.154       5.671       5.323       4.991       4.571       4.114       3.658       3.246       2.892    
        2.547       2.154       1.799       1.554       1.309       1.085      0.7992      0.4962      0.2377       0.000    
   5    10.00       9.941       9.880       9.804       9.727       9.645       9.549       9.476       9.407       9.337    
        9.281       9.234       9.152       9.035       8.885       8.705       8.561       8.459       8.373       8.270    
        8.176       8.102       8.013       7.901       7.775       7.611       7.450       7.304       7.145       6.891    
        6.416       5.864       5.478       5.207       4.879       4.427       3.957       3.545       3.242       2.923    
        2.587       2.229       1.879       1.652       1.390       1.067      0.7270      0.4421      0.2224       0.000    
   6    10.00       9.932       9.860       9.797       9.727       9.637       9.556       9.494       9.421       9.355    
        9.302       9.244       9.140       9.008       8.876       8.726       8.581       8.462       8.347       8.227    
        8.133       8.045       7.967       7.866       7.704       7.543       7.413       7.265       7.041       6.653    
        6.125       5.623       5.303       5.071       4.773       4.327       3.863       3.523       3.268       2.982    
        2.679       2.367       2.011       1.708       1.361       1.005      0.6413      0.3810      0.2098       0.000    
   7    10.00       9.919       9.849       9.790       9.717       9.642       9.571       9.511       9.444       9.379    
        9.314       9.226       9.112       8.987       8.862       8.744       8.590       8.427       8.294       8.177    
        8.078       7.993       7.927       7.798       7.631       7.496       7.364       7.161       6.792       6.292    
        5.791       5.389       5.175       4.971       4.625       4.205       3.897       3.572       3.298       3.115    
        2.831       2.498       2.081       1.648       1.260      0.8715      0.5514      0.3833      0.1973       0.000    
   8    10.00       9.918       9.855       9.788       9.715       9.648       9.586       9.525       9.463       9.401    
        9.314       9.202       9.089       8.970       8.855       8.721       8.528       8.356       8.247       8.135    
        8.024       7.951       7.850       7.710       7.564       7.423       7.196       6.878       6.409       5.971    
        5.601       5.298       5.105       4.871       4.501       4.158       3.880       3.642       3.435       3.227    
        2.951       2.533       2.021       1.560       1.157      0.8143      0.5829      0.3749      0.1798       0.000    
   9    10.00       9.931       9.854       9.780       9.726       9.671       9.608       9.543       9.474       9.407    
        9.307       9.178       9.054       8.936       8.812       8.653       8.465       8.307       8.190       8.074    
        7.976       7.882       7.744       7.610       7.473       7.296       6.965       6.537       6.098       5.780    
        5.479       5.233       5.023       4.732       4.392       4.108       3.899       3.728       3.543       3.316    
        2.985       2.529       2.010       1.553       1.163      0.8309      0.5874      0.3777      0.1932       0.000    
  10    10.00       9.928       9.847       9.787       9.736       9.682       9.625       9.570       9.489       9.389    
        9.267       9.132       9.013       8.902       8.773       8.577       8.379       8.241       8.134       8.027    
        7.935       7.803       7.650       7.498       7.337       7.076       6.647       6.205       5.837       5.582    
        5.391       5.188       4.930       4.637       4.326       4.092       3.938       3.790       3.591       3.329    
        2.950       2.480       2.007       1.619       1.255      0.9125      0.6049      0.4008      0.2155       0.000    
  11    10.00       9.913       9.847       9.797       9.747       9.701       9.648       9.570       9.459       9.347    
        9.223       9.091       8.981       8.845       8.669       8.481       8.319       8.198       8.100       7.991    
        7.852       7.682       7.474       7.300       7.026       6.658       6.295       5.974       5.670       5.485    
        5.339       5.075       4.798       4.556       4.322       4.148       3.990       3.801       3.555       3.238    
        2.882       2.521       2.071       1.691       1.346       1.007      0.6783      0.3931      0.1649       0.000    
  12    10.00       9.915       9.854       9.801       9.759       9.711       9.650       9.540       9.410       9.302    
        9.187       9.048       8.914       8.752       8.597       8.424       8.268       8.163       8.054       7.901    
        7.666       7.412       7.165       6.920       6.553       6.277       6.077       5.763       5.515       5.383    
        5.217       4.969       4.745       4.525       4.362       4.196       3.999       3.768       3.470       3.154    
        2.855       2.531       2.098       1.726       1.403       1.050      0.7118      0.3698      0.1228       0.000    
  13    10.00       9.931       9.873       9.817       9.767       9.709       9.611       9.483       9.361       9.251    
        9.120       8.984       8.844       8.675       8.504       8.342       8.228       8.097       7.951       7.644    
        7.287       7.018       6.747       6.421       6.142       6.013       5.787       5.512       5.382       5.261    
        5.067       4.858       4.683       4.525       4.387       4.233       3.999       3.690       3.407       3.112    
        2.830       2.496       2.033       1.688       1.411       1.037      0.6521      0.3180      9.7363E-02   0.000    
  14    10.00       9.947       9.897       9.837       9.766       9.670       9.542       9.413       9.303       9.181    
        9.046       8.920       8.760       8.582       8.430       8.290       8.115       7.942       7.649       7.192    
        6.851       6.592       6.232       5.979       5.853       5.738       5.516       5.349       5.221       5.094    
        4.929       4.785       4.664       4.533       4.385       4.236       3.970       3.637       3.347       3.045    
        2.760       2.346       1.907       1.639       1.325      0.9891      0.6501      0.2932      8.3524E-02   0.000    
  15    10.00       9.957       9.905       9.838       9.752       9.612       9.455       9.342       9.239       9.117    
        9.012       8.881       8.674       8.472       8.331       8.109       7.886       7.706       7.255       6.759    
        6.454       6.109       5.809       5.718       5.655       5.508       5.320       5.165       5.068       4.972    
        4.851       4.748       4.653       4.537       4.395       4.214       3.903       3.536       3.233       2.962    
        2.659       2.245       1.903       1.569       1.197      0.9026      0.5791      0.2679      9.0627E-02   0.000    
  16    10.00       9.965       9.907       9.824       9.698       9.530       9.389       9.300       9.208       9.086    
        8.959       8.763       8.504       8.308       8.106       7.849       7.701       7.332       6.702       6.272    
        6.008       5.717       5.614       5.564       5.444       5.254       5.109       5.035       4.994       4.913    
        4.813       4.721       4.640       4.522       4.350       4.101       3.748       3.436       3.203       2.924    
        2.573       2.169       1.803       1.440       1.123      0.7970      0.5178      0.2697      9.6286E-02   0.000    
  17    10.00       9.959       9.890       9.777       9.633       9.459       9.335       9.257       9.146       9.016    
        8.786       8.511       8.295       8.096       7.834       7.580       7.267       6.679       6.163       5.900    
        5.696       5.546       5.476       5.352       5.165       5.032       4.992       4.974       4.933       4.853    
        4.766       4.687       4.601       4.480       4.226       3.905       3.635       3.439       3.217       2.881    
        2.441       2.048       1.709       1.371       1.004      0.6631      0.4403      0.2442      0.1017       0.000    
  18    10.00       9.941       9.852       9.721       9.530       9.383       9.296       9.178       9.043       8.846    
        8.553       8.325       8.123       7.819       7.478       7.129       6.694       6.189       5.878       5.680    
        5.528       5.399       5.285       5.117       4.990       4.951       4.936       4.916       4.860       4.783    
        4.712       4.632       4.523       4.335       4.075       3.821       3.617       3.458       3.179       2.765    
        2.344       1.937       1.597       1.280      0.9290      0.6102      0.3716      0.2038      9.5129E-02   0.000    
  19    10.00       9.921       9.817       9.626       9.436       9.350       9.238       9.085       8.921       8.695    
        8.437       8.212       7.886       7.453       7.101       6.761       6.299       5.895       5.700       5.573    
        5.413       5.250       5.119       4.980       4.914       4.897       4.875       4.832       4.762       4.697    
        4.626       4.538       4.395       4.208       4.002       3.793       3.622       3.419       3.021       2.616    
        2.284       1.870       1.504       1.196      0.8517      0.5490      0.3339      0.1932      9.6743E-02   0.000    
  20    10.00       9.897       9.738       9.539       9.399       9.300       9.176       9.011       8.815       8.606    
        8.336       8.001       7.560       7.166       6.856       6.453       6.038       5.834       5.671       5.497    
        5.323       5.152       4.992       4.891       4.846       4.810       4.758       4.713       4.644       4.585    
        4.516       4.429       4.287       4.130       3.950       3.777       3.598       3.280       2.868       2.527    
        2.160       1.759       1.435       1.128      0.8087      0.4929      0.2899      0.1948      9.8441E-02   0.000    
  21    10.00       9.837       9.673       9.510       9.363       9.252       9.115       8.904       8.705       8.503    
        8.151       7.730       7.320       6.998       6.668       6.283       5.989       5.811       5.625       5.435    
        5.223       5.029       4.888       4.785       4.708       4.639       4.597       4.555       4.483       4.437    
        4.392       4.301       4.184       4.053       3.898       3.734       3.483       3.165       2.813       2.411    
        2.044       1.668       1.389       1.108      0.7030      0.4166      0.2971      0.2169      0.1043       0.000    
  22    10.00       9.813       9.619       9.460       9.336       9.201       9.000       8.790       8.614       8.346    
        7.977       7.538       7.186       6.920       6.558       6.205       5.958       5.775       5.591       5.361    
        5.117       4.921       4.738       4.577       4.473       4.423       4.389       4.332       4.309       4.282    
        4.249       4.182       4.098       3.980       3.841       3.683       3.424       3.114       2.700       2.306    
        1.990       1.651       1.342      0.9253      0.5801      0.4181      0.3146      0.2094      8.3247E-02   0.000    
  23    10.00       9.771       9.581       9.449       9.313       9.113       8.887       8.723       8.500       8.222    
        7.847       7.458       7.187       6.849       6.461       6.154       5.945       5.778       5.569       5.294    
        5.034       4.802       4.560       4.272       4.017       3.966       4.038       4.073       4.122       4.139    
        4.127       4.087       4.017       3.924       3.792       3.630       3.391       3.006       2.574       2.252    
        1.951       1.565       1.120      0.7587      0.5669      0.4297      0.3148      0.1999      9.3143E-02   0.000    
  24    10.00       9.739       9.602       9.450       9.257       9.037       8.859       8.681       8.462       8.143    
        7.799       7.497       7.198       6.791       6.382       6.139       5.966       5.792       5.540       5.262    
        5.004       4.737       4.366       3.705       2.709       3.040       3.493       3.779       3.934       3.998    
        4.020       3.998       3.954       3.860       3.733       3.569       3.274       2.871       2.507       2.166    
        1.800       1.392      0.9974      0.7262      0.5657      0.4283      0.3083      0.2337      0.1287       0.000    
  25    10.00       9.773       9.628       9.444       9.242       9.045       8.863       8.694       8.427       8.110    
        7.821       7.530       7.164       6.720       6.402       6.179       5.987       5.781       5.546       5.288    
        5.009       4.743       4.067       2.659     -0.5296       2.052       3.027       3.517       3.779       3.900    
        3.939       3.934       3.889       3.781       3.649       3.449       3.144       2.758       2.430       2.062    
        1.641       1.256      0.9334      0.7215      0.5901      0.4617      0.3375      0.2488      0.1625       0.000    
  26    10.00       9.806       9.669       9.472       9.263       9.091       8.903       8.690       8.417       8.170    
        7.920       7.533       7.072       6.695       6.463       6.262       6.032       5.765       5.516       5.295    
        5.079       4.787       4.161       3.137       2.063       2.583       3.147       3.503       3.725       3.857    
        3.894       3.887       3.826       3.722       3.594       3.379       2.983       2.626       2.348       1.897    
        1.439       1.119      0.9283      0.7846      0.6444      0.5015      0.3721      0.2727      0.1628       0.000    
  27    10.00       9.849       9.683       9.515       9.330       9.131       8.945       8.739       8.494       8.258    
        7.925       7.470       7.071       6.763       6.558       6.332       6.031       5.738       5.535       5.358    
        5.177       4.874       4.404       3.836       3.232       3.248       3.446       3.632       3.776       3.857    
        3.878       3.862       3.803       3.695       3.523       3.187       2.812       2.529       2.100       1.653    
        1.321       1.109      0.9691      0.8472      0.7179      0.5529      0.3984      0.2983      0.2005       0.000    
  28    10.00       9.863       9.723       9.564       9.396       9.208       9.015       8.808       8.578       8.306    
        7.900       7.487       7.141       6.844       6.631       6.404       6.145       5.856       5.585       5.409    
        5.246       5.028       4.714       4.286       3.902       3.728       3.738       3.824       3.862       3.892    
        3.888       3.858       3.787       3.632       3.376       3.022       2.698       2.309       1.881       1.580    
        1.333       1.157       1.017      0.8965      0.7633      0.6054      0.4521      0.3398      0.2072       0.000    
  29    10.00       9.870       9.738       9.619       9.457       9.287       9.101       8.894       8.651       8.288    
        7.889       7.529       7.201       6.955       6.710       6.464       6.228       5.996       5.731       5.501    
        5.326       5.141       4.924       4.660       4.309       4.122       4.050       4.019       4.003       3.969    
        3.922       3.855       3.761       3.552       3.237       2.910       2.563       2.166       1.834       1.611    
        1.407       1.212       1.059      0.9413      0.8114      0.6494      0.4912      0.3597      0.2097       0.000    
  30    10.00       9.882       9.773       9.668       9.529       9.372       9.207       8.977       8.675       8.307    
        7.897       7.532       7.258       7.016       6.776       6.537       6.339       6.138       5.898       5.652    
        5.441       5.270       5.080       4.890       4.666       4.463       4.380       4.249       4.177       4.076    
        3.964       3.848       3.702       3.479       3.208       2.890       2.525       2.152       1.903       1.695    
        1.462       1.270       1.123      0.9809      0.8345      0.6908      0.5245      0.3757      0.2270       0.000    
  31    10.00       9.902       9.808       9.711       9.611       9.487       9.309       9.039       8.693       8.310    
        7.916       7.577       7.317       7.071       6.857       6.636       6.426       6.273       6.042       5.804    
        5.600       5.422       5.255       5.082       4.941       4.779       4.619       4.471       4.323       4.177    
        4.007       3.838       3.681       3.489       3.215       2.876       2.523       2.208       2.001       1.813    
        1.572       1.349       1.176       1.026      0.8801      0.7273      0.5599      0.4024      0.2215       0.000    
  32    10.00       9.918       9.847       9.762       9.665       9.554       9.379       9.077       8.753       8.405    
        7.990       7.637       7.379       7.148       6.933       6.747       6.561       6.366       6.179       5.952    
        5.738       5.545       5.383       5.224       5.093       4.979       4.801       4.632       4.442       4.243    
        4.055       3.874       3.691       3.499       3.237       2.927       2.628       2.346       2.125       1.914    
        1.690       1.456       1.270       1.093      0.9250      0.7858      0.6140      0.4047      0.2012       0.000    
  33    10.00       9.930       9.872       9.804       9.710       9.586       9.365       9.075       8.804       8.485    
        8.083       7.734       7.467       7.217       7.019       6.859       6.693       6.500       6.291       6.084    
        5.860       5.653       5.465       5.308       5.201       5.087       4.924       4.723       4.528       4.334    
        4.140       3.964       3.772       3.522       3.270       2.985       2.727       2.500       2.269       2.039    
        1.829       1.606       1.400       1.214       1.025      0.8589      0.6651      0.4170      0.1966       0.000    
  34    10.00       9.937       9.898       9.840       9.725       9.557       9.346       9.132       8.856       8.511    
        8.160       7.821       7.539       7.292       7.111       6.982       6.807       6.613       6.388       6.193    
        5.991       5.749       5.560       5.413       5.305       5.178       4.994       4.813       4.607       4.395    
        4.233       4.065       3.894       3.644       3.376       3.110       2.871       2.668       2.428       2.194    
        1.990       1.784       1.564       1.373       1.171      0.9747      0.7257      0.4668      0.2460       0.000    
  35    10.00       9.948       9.904       9.832       9.692       9.516       9.363       9.182       8.931       8.563    
        8.191       7.882       7.600       7.384       7.226       7.081       6.902       6.690       6.475       6.260    
        6.079       5.866       5.674       5.536       5.420       5.293       5.092       4.871       4.655       4.454    
        4.328       4.174       3.987       3.796       3.561       3.274       3.027       2.858       2.611       2.342    
        2.148       1.940       1.732       1.543       1.315       1.095      0.8423      0.5624      0.2810       0.000    
  36    10.00       9.946       9.885       9.804       9.666       9.500       9.363       9.198       8.948       8.609    
        8.225       7.894       7.681       7.503       7.354       7.179       6.966       6.763       6.538       6.284    
        6.093       5.927       5.760       5.640       5.524       5.374       5.167       4.936       4.716       4.522    
        4.391       4.263       4.083       3.899       3.695       3.432       3.179       2.988       2.769       2.475    
        2.255       2.046       1.833       1.675       1.456       1.210      0.9559      0.6625      0.3370       0.000    
  37    10.00       9.930       9.864       9.776       9.638       9.487       9.336       9.178       8.951       8.590    
        8.206       7.931       7.795       7.627       7.433       7.261       7.025       6.783       6.521       6.272    
        6.114       5.982       5.825       5.705       5.572       5.401       5.209       4.977       4.776       4.617    
        4.471       4.324       4.138       3.974       3.760       3.508       3.305       3.117       2.872       2.581    
        2.317       2.111       1.939       1.762       1.553       1.323       1.079      0.7494      0.4061       0.000    
  38    10.00       9.924       9.838       9.746       9.620       9.474       9.308       9.144       8.907       8.575    
        8.280       8.056       7.882       7.732       7.520       7.265       7.005       6.728       6.453       6.284    
        6.159       6.004       5.864       5.755       5.619       5.424       5.196       4.984       4.854       4.719    
        4.558       4.390       4.206       4.036       3.826       3.589       3.403       3.213       2.921       2.615    
        2.385       2.192       2.016       1.839       1.652       1.429       1.176      0.8587      0.4457       0.000    
  39    10.00       9.904       9.819       9.728       9.605       9.444       9.267       9.096       8.882       8.614    
        8.383       8.215       8.022       7.815       7.523       7.202       6.889       6.598       6.427       6.311    
        6.153       5.993       5.889       5.790       5.666       5.444       5.207       5.049       4.929       4.791    
        4.621       4.456       4.269       4.084       3.903       3.703       3.488       3.265       2.963       2.660    
        2.417       2.223       2.086       1.943       1.740       1.512       1.257      0.9110      0.4463       0.000    
  40    10.00       9.889       9.807       9.716       9.594       9.427       9.246       9.073       8.891       8.669    
        8.479       8.337       8.108       7.791       7.430       7.076       6.760       6.554       6.434       6.305    
        6.136       5.994       5.898       5.789       5.645       5.469       5.297       5.133       4.989       4.861    
        4.704       4.517       4.324       4.147       3.977       3.773       3.541       3.316       2.987       2.654    
        2.434       2.271       2.127       2.004       1.798       1.545       1.310      0.9472      0.4678       0.000    
  41    10.00       9.898       9.802       9.703       9.568       9.418       9.260       9.106       8.932       8.735    
        8.555       8.388       8.093       7.699       7.303       6.981       6.727       6.548       6.426       6.283    
        6.114       5.992       5.891       5.775       5.645       5.511       5.380       5.223       5.052       4.904    
        4.761       4.581       4.384       4.220       4.040       3.841       3.603       3.288       2.923       2.667    
        2.486       2.316       2.182       2.028       1.810       1.559       1.351       1.006      0.5151       0.000    
  42    10.00       9.902       9.796       9.705       9.588       9.448       9.291       9.121       8.966       8.816    
        8.607       8.318       7.953       7.550       7.194       6.943       6.722       6.552       6.413       6.243    
        6.087       5.975       5.875       5.789       5.672       5.571       5.449       5.271       5.089       4.955    
        4.825       4.630       4.417       4.263       4.109       3.885       3.580       3.203       2.877       2.680    
        2.536       2.391       2.225       2.024       1.798       1.596       1.386       1.048      0.5391       0.000    
  43    10.00       9.904       9.807       9.714       9.622       9.498       9.343       9.175       9.009       8.800    
        8.512       8.183       7.810       7.421       7.142       6.930       6.722       6.547       6.381       6.214    
        6.066       5.961       5.883       5.815       5.712       5.600       5.483       5.310       5.146       5.033    
        4.870       4.655       4.453       4.301       4.124       3.850       3.492       3.128       2.900       2.744    
        2.590       2.434       2.232       2.015       1.808       1.612       1.423       1.045      0.4707       0.000    
  44    10.00       9.898       9.810       9.730       9.629       9.535       9.404       9.204       8.984       8.701    
        8.411       8.065       7.658       7.374       7.156       6.923       6.697       6.501       6.322       6.172    
        6.065       5.978       5.903       5.831       5.743       5.630       5.492       5.355       5.226       5.084    
        4.927       4.732       4.505       4.289       4.082       3.803       3.429       3.113       2.930       2.778    
        2.631       2.458       2.256       2.062       1.845       1.627       1.381      0.8948      0.3955       0.000    
  45    10.00       9.898       9.826       9.734       9.640       9.556       9.369       9.143       8.888       8.610    
        8.366       7.952       7.572       7.359       7.140       6.887       6.634       6.434       6.275       6.165    
        6.087       6.009       5.930       5.844       5.749       5.646       5.530       5.412       5.307       5.162    
        4.973       4.765       4.535       4.275       4.039       3.735       3.383       3.133       2.982       2.830    
        2.639       2.439       2.262       2.087       1.897       1.663       1.246      0.7505      0.3802       0.000    
  46    10.00       9.916       9.839       9.742       9.638       9.483       9.287       9.101       8.868       8.596    
        8.245       7.866       7.560       7.295       7.071       6.823       6.570       6.413       6.293       6.190    
        6.118       6.046       5.953       5.850       5.756       5.664       5.569       5.464       5.359       5.226    
        5.051       4.833       4.577       4.284       3.955       3.628       3.370       3.199       3.030       2.856    
        2.635       2.427       2.251       2.110       1.906       1.579       1.118      0.7074      0.3595       0.000    
  47    10.00       9.935       9.864       9.763       9.585       9.397       9.229       9.071       8.863       8.524    
        8.147       7.793       7.500       7.277       7.036       6.762       6.544       6.404       6.309       6.224    
        6.147       6.064       5.972       5.870       5.777       5.697       5.612       5.508       5.387       5.256    
        5.101       4.909       4.580       4.191       3.881       3.638       3.413       3.267       3.112       2.869    
        2.607       2.388       2.222       2.107       1.853       1.462       1.039      0.6812      0.3497       0.000    
  48    10.00       9.943       9.868       9.718       9.538       9.382       9.204       9.044       8.822       8.466    
        8.055       7.734       7.497       7.231       6.952       6.705       6.541       6.404       6.313       6.250    
        6.173       6.074       5.972       5.884       5.809       5.740       5.659       5.544       5.402       5.249    
        5.089       4.870       4.530       4.210       3.938       3.697       3.486       3.320       3.121       2.830    
        2.552       2.376       2.238       2.022       1.681       1.331      0.9922      0.6864      0.3693       0.000    
  49    10.00       9.940       9.833       9.699       9.552       9.371       9.192       9.012       8.738       8.361    
        8.007       7.707       7.421       7.169       6.954       6.721       6.509       6.385       6.325       6.265    
        6.192       6.080       5.968       5.894       5.832       5.778       5.688       5.549       5.388       5.242    
        5.075       4.806       4.519       4.304       4.055       3.772       3.517       3.316       3.087       2.776    
        2.552       2.397       2.191       1.866       1.563       1.276      0.9813      0.6866      0.3682       0.000    
  50    10.00       9.932       9.821       9.684       9.551       9.382       9.182       8.958       8.669       8.371    
        8.001       7.626       7.360       7.159       6.977       6.715       6.480       6.388       6.334       6.273    
        6.201       6.085       5.970       5.899       5.846       5.796       5.694       5.536       5.373       5.234    
        5.062       4.785       4.562       4.370       4.110       3.830       3.563       3.289       2.974       2.713    
        2.597       2.422       2.104       1.778       1.552       1.274      0.9952      0.6726      0.2999       0.000    

 HEAD WILL BE SAVED ON UNIT   51 AT END OF TIME STEP  96, STRESS PERIOD    2

 DRAWDOWN WILL BE SAVED ON UNIT   52 AT END OF TIME STEP  96, STRESS PERIOD    2
1
  VOLUMETRIC BUDGET FOR ENTIRE MODEL AT END OF TIME STEP 96 IN STRESS PERIOD   2
  ------------------------------------------------------------------------------

     CUMULATIVE VOLUMES      L**3       RATES FOR THIS TIME STEP      L**3/T
     ------------------                 ------------------------

           IN:                                      IN:
           ---                                      ---
             STORAGE =       43647.4180               STORAGE =         368.2981
       CONSTANT HEAD =       61472.9297         CONSTANT HEAD =         699.3830
               WELLS =           0.0000                 WELLS =           0.0000

            TOTAL IN =      105120.3438              TOTAL IN =        1067.6812

          OUT:                                     OUT:
          ----                                     ----
             STORAGE =       9.4320E-03               STORAGE =           0.0000
       CONSTANT HEAD =       57120.3320         CONSTANT HEAD =         567.6815
               WELLS =       48000.0000                 WELLS =         500.0000

           TOTAL OUT =      105120.3438             TOTAL OUT =        1067.6815

            IN - OUT =           0.0000              IN - OUT =      -3.6621E-04

 PERCENT DISCREPANCY =           0.00     PERCENT DISCREPANCY =           0.00






          TIME SUMMARY AT END OF TIME STEP  96 IN STRESS PERIOD    2
                    SECONDS     MINUTES      HOURS       DAYS        YEARS
                    -----------------------------------------------------------
   TIME STEP LENGTH  86400.      1440.0      24.000      1.0000     2.73785E-03
 STRESS PERIOD TIME 8.29440E+06 1.38240E+05  2304.0      96.000     0.26283    
         TOTAL TIME 8.38080E+06 1.39680E+05  2328.0      97.000     0.26557    
1
 
 SOLVING FOR HEAD 

 OUTPUT CONTROL FOR STRESS PERIOD    2   TIME STEP  97
    SAVE HEAD FOR ALL LAYERS
    SAVE DRAWDOWN FOR ALL LAYERS
    SAVE BUDGET
    PRINT HEAD FOR ALL LAYERS
    PRINT BUDGET
 UBDSV1 SAVING "         STORAGE" ON UNIT  53 AT TIME STEP 97, STRESS PERIOD   2
 UBDSV2 SAVING "   CONSTANT HEAD" ON UNIT  53 AT TIME STEP 97, STRESS PERIOD   2
 UBDSV1 SAVING "FLOW RIGHT FACE " ON UNIT  53 AT TIME STEP 97, STRESS PERIOD   2
 UBDSV1 SAVING "FLOW FRONT FACE " ON UNIT  53 AT TIME STEP 97, STRESS PERIOD   2
1
              HEAD IN LAYER   1 AT END OF TIME STEP  97 IN STRESS PERIOD    2
  ---------------------------------------------------------------------------

            1           2           3           4           5           6           7           8           9          10
           11          12          13          14          15          16          17          18          19          20
           21          22          23          24          25          26          27          28          29          30
           31          32          33          34          35          36          37          38          39          40
           41          42          43          44          45          46          47          48          49          50
 ........................................................................................................................
   1    10.00       9.952       9.884       9.807       9.732       9.646       9.565       9.486       9.385       9.287    
        9.211       9.137       9.061       8.988       8.869       8.726       8.567       8.442       8.378       8.304    
        8.216       8.146       8.078       8.001       7.899       7.698       7.473       7.316       7.165       7.023    
        6.839       6.545       6.170       5.755       5.325       4.868       4.418       4.044       3.557       3.027    
        2.594       2.181       1.722       1.340       1.104      0.9054      0.7481      0.6342      0.4257       0.000    
   2    10.00       9.951       9.890       9.812       9.735       9.660       9.579       9.474       9.364       9.284    
        9.218       9.155       9.092       9.000       8.864       8.715       8.565       8.441       8.375       8.292    
        8.204       8.151       8.097       8.016       7.885       7.689       7.484       7.323       7.170       7.032    
        6.826       6.518       6.124       5.650       5.192       4.751       4.361       3.999       3.504       2.991    
        2.557       2.093       1.676       1.377       1.156      0.9853      0.7906      0.6172      0.3444       0.000    
   3    10.00       9.945       9.883       9.814       9.747       9.670       9.567       9.456       9.378       9.306    
        9.233       9.175       9.119       9.030       8.891       8.707       8.543       8.443       8.366       8.281    
        8.209       8.154       8.097       7.988       7.846       7.670       7.492       7.365       7.186       7.006    
        6.747       6.380       5.927       5.467       5.063       4.655       4.274       3.885       3.370       2.896    
        2.525       2.100       1.720       1.447       1.229       1.053      0.8222      0.5514      0.2500       0.000    
   4    10.00       9.945       9.884       9.817       9.740       9.651       9.545       9.461       9.394       9.319    
        9.254       9.206       9.143       9.044       8.908       8.711       8.541       8.447       8.360       8.285    
        8.207       8.138       8.065       7.950       7.809       7.651       7.488       7.331       7.171       6.966    
        6.638       6.150       5.667       5.318       4.986       4.567       4.110       3.654       3.243       2.889    
        2.544       2.152       1.797       1.552       1.307       1.083      0.7983      0.4957      0.2375       0.000    
   5    10.00       9.941       9.880       9.803       9.727       9.644       9.548       9.475       9.406       9.336    
        9.280       9.232       9.150       9.033       8.882       8.703       8.559       8.456       8.370       8.267    
        8.173       8.098       8.009       7.897       7.771       7.607       7.445       7.300       7.140       6.886    
        6.411       5.859       5.473       5.202       4.874       4.423       3.952       3.541       3.238       2.920    
        2.584       2.226       1.877       1.650       1.388       1.065      0.7262      0.4416      0.2221       0.000    
   6    10.00       9.932       9.860       9.796       9.726       9.636       9.555       9.493       9.419       9.354    
        9.300       9.243       9.138       9.006       8.874       8.723       8.578       8.459       8.344       8.224    
        8.130       8.041       7.964       7.863       7.700       7.539       7.409       7.261       7.036       6.648    
        6.120       5.618       5.298       5.066       4.768       4.322       3.859       3.519       3.264       2.979    
        2.676       2.364       2.009       1.706       1.359       1.004      0.6405      0.3806      0.2095       0.000    
   7    10.00       9.919       9.849       9.789       9.717       9.642       9.570       9.510       9.442       9.378    
        9.312       9.224       9.110       8.985       8.860       8.741       8.588       8.424       8.291       8.174    
        8.075       7.989       7.923       7.794       7.627       7.492       7.359       7.156       6.787       6.286    
        5.786       5.383       5.170       4.965       4.620       4.200       3.892       3.567       3.293       3.111    
        2.827       2.495       2.078       1.646       1.258      0.8704      0.5508      0.3828      0.1971       0.000    
   8    10.00       9.918       9.855       9.787       9.714       9.648       9.585       9.524       9.462       9.400    
        9.313       9.200       9.087       8.968       8.852       8.718       8.525       8.352       8.243       8.131    
        8.020       7.947       7.846       7.706       7.560       7.418       7.192       6.873       6.403       5.965    
        5.595       5.292       5.100       4.866       4.496       4.153       3.875       3.637       3.430       3.223    
        2.947       2.530       2.019       1.558       1.156      0.8132      0.5822      0.3744      0.1795       0.000    
   9    10.00       9.931       9.854       9.780       9.726       9.670       9.607       9.542       9.473       9.406    
        9.305       9.177       9.052       8.933       8.809       8.650       8.462       8.303       8.186       8.070    
        7.972       7.878       7.740       7.606       7.469       7.291       6.960       6.532       6.092       5.774    
        5.472       5.227       5.017       4.726       4.387       4.102       3.894       3.723       3.539       3.312    
        2.981       2.526       2.007       1.551       1.161      0.8298      0.5866      0.3772      0.1930       0.000    
  10    10.00       9.928       9.846       9.786       9.736       9.682       9.624       9.569       9.488       9.388    
        9.265       9.130       9.010       8.899       8.770       8.574       8.376       8.238       8.131       8.023    
        7.931       7.799       7.646       7.494       7.333       7.070       6.641       6.199       5.830       5.576    
        5.385       5.181       4.924       4.631       4.320       4.087       3.933       3.785       3.586       3.325    
        2.946       2.476       2.004       1.617       1.254      0.9112      0.6041      0.4002      0.2152       0.000    
  11    10.00       9.913       9.846       9.797       9.747       9.700       9.648       9.569       9.458       9.345    
        9.222       9.089       8.979       8.843       8.666       8.478       8.316       8.194       8.096       7.987    
        7.848       7.678       7.469       7.295       7.020       6.652       6.288       5.967       5.663       5.478    
        5.332       5.068       4.791       4.550       4.316       4.142       3.985       3.796       3.550       3.234    
        2.878       2.518       2.068       1.688       1.344       1.006      0.6774      0.3926      0.1647       0.000    
  12    10.00       9.915       9.854       9.801       9.759       9.710       9.649       9.539       9.409       9.301    
        9.185       9.046       8.911       8.749       8.594       8.420       8.264       8.159       8.050       7.897    
        7.661       7.406       7.160       6.914       6.547       6.271       6.070       5.756       5.508       5.376    
        5.210       4.962       4.738       4.518       4.355       4.190       3.993       3.762       3.464       3.149    
        2.851       2.527       2.095       1.723       1.401       1.048      0.7108      0.3693      0.1226       0.000    
  13    10.00       9.931       9.873       9.817       9.766       9.708       9.610       9.482       9.360       9.249    
        9.118       8.982       8.841       8.672       8.501       8.338       8.224       8.093       7.947       7.639    
        7.282       7.013       6.741       6.414       6.135       6.006       5.780       5.504       5.374       5.253    
        5.060       4.851       4.676       4.519       4.381       4.226       3.993       3.684       3.401       3.108    
        2.826       2.493       2.029       1.686       1.409       1.036      0.6511      0.3176      9.7216E-02   0.000    
  14    10.00       9.947       9.896       9.837       9.766       9.669       9.540       9.412       9.301       9.179    
        9.044       8.917       8.757       8.579       8.426       8.286       8.111       7.937       7.644       7.186    
        6.844       6.585       6.225       5.972       5.845       5.731       5.508       5.341       5.213       5.086    
        4.921       4.777       4.657       4.526       4.378       4.229       3.964       3.631       3.342       3.041    
        2.756       2.343       1.904       1.636       1.323      0.9875      0.6491      0.2928      8.3390E-02   0.000    
  15    10.00       9.957       9.905       9.837       9.752       9.610       9.453       9.340       9.237       9.115    
        9.010       8.878       8.671       8.468       8.327       8.105       7.881       7.700       7.249       6.752    
        6.446       6.101       5.801       5.710       5.647       5.500       5.312       5.157       5.060       4.964    
        4.843       4.741       4.645       4.530       4.387       4.207       3.897       3.530       3.228       2.957    
        2.654       2.241       1.900       1.566       1.195      0.9011      0.5781      0.2674      9.0476E-02   0.000    
  16    10.00       9.964       9.907       9.823       9.697       9.528       9.388       9.298       9.206       9.084    
        8.957       8.760       8.500       8.304       8.101       7.844       7.696       7.326       6.695       6.264    
        6.000       5.709       5.605       5.556       5.435       5.245       5.100       5.026       4.985       4.905    
        4.804       4.713       4.632       4.515       4.342       4.094       3.741       3.430       3.197       2.919    
        2.569       2.165       1.800       1.437       1.121      0.7956      0.5169      0.2692      9.6122E-02   0.000    
  17    10.00       9.959       9.889       9.777       9.632       9.457       9.333       9.255       9.144       9.013    
        8.783       8.507       8.291       8.091       7.829       7.574       7.261       6.672       6.155       5.891    
        5.687       5.538       5.467       5.343       5.156       5.023       4.983       4.965       4.924       4.845    
        4.758       4.679       4.593       4.472       4.219       3.897       3.629       3.433       3.211       2.876    
        2.437       2.045       1.706       1.369       1.002      0.6620      0.4395      0.2438      0.1016       0.000    
  18    10.00       9.941       9.851       9.720       9.529       9.381       9.294       9.176       9.040       8.842    
        8.549       8.321       8.119       7.814       7.472       7.123       6.686       6.181       5.870       5.672    
        5.519       5.391       5.276       5.108       4.981       4.943       4.927       4.907       4.851       4.775    
        4.703       4.624       4.514       4.326       4.067       3.813       3.610       3.451       3.173       2.760    
        2.340       1.933       1.594       1.278      0.9273      0.6091      0.3709      0.2034      9.4960E-02   0.000    
  19    10.00       9.921       9.817       9.625       9.434       9.348       9.236       9.082       8.918       8.692    
        8.432       8.207       7.881       7.447       7.094       6.753       6.291       5.886       5.692       5.564    
        5.404       5.241       5.110       4.971       4.905       4.888       4.866       4.823       4.753       4.688    
        4.617       4.530       4.386       4.199       3.995       3.785       3.615       3.412       3.015       2.611    
        2.279       1.866       1.501       1.194      0.8501      0.5480      0.3333      0.1928      9.6569E-02   0.000    
  20    10.00       9.897       9.737       9.537       9.397       9.298       9.173       9.008       8.811       8.602    
        8.331       7.995       7.554       7.159       6.849       6.445       6.029       5.825       5.662       5.488    
        5.314       5.143       4.983       4.882       4.837       4.801       4.749       4.703       4.635       4.576    
        4.507       4.420       4.278       4.121       3.942       3.769       3.590       3.273       2.862       2.522    
        2.156       1.755       1.432       1.126      0.8072      0.4920      0.2894      0.1945      9.8264E-02   0.000    
  21    10.00       9.837       9.672       9.508       9.361       9.249       9.112       8.901       8.701       8.498    
        8.146       7.724       7.313       6.990       6.660       6.275       5.980       5.803       5.616       5.426    
        5.214       5.020       4.879       4.775       4.698       4.630       4.587       4.545       4.474       4.428    
        4.383       4.291       4.175       4.044       3.890       3.726       3.475       3.158       2.807       2.406    
        2.040       1.665       1.386       1.106      0.7017      0.4159      0.2966      0.2165      0.1041       0.000    
  22    10.00       9.812       9.618       9.458       9.333       9.199       8.997       8.787       8.609       8.341    
        7.971       7.532       7.179       6.912       6.550       6.197       5.949       5.767       5.582       5.352    
        5.108       4.911       4.729       4.568       4.464       4.414       4.380       4.322       4.299       4.273    
        4.240       4.173       4.089       3.971       3.832       3.675       3.416       3.107       2.694       2.301    
        1.986       1.648       1.339      0.9236      0.5790      0.4173      0.3141      0.2090      8.3101E-02   0.000    
  23    10.00       9.770       9.580       9.447       9.311       9.110       8.883       8.719       8.495       8.217    
        7.841       7.452       7.180       6.842       6.453       6.146       5.937       5.769       5.560       5.285    
        5.024       4.792       4.550       4.263       4.007       3.956       4.029       4.063       4.112       4.130    
        4.118       4.077       4.007       3.914       3.783       3.622       3.383       3.000       2.569       2.247    
        1.947       1.562       1.118      0.7573      0.5659      0.4290      0.3142      0.1996      9.2984E-02   0.000    
  24    10.00       9.738       9.600       9.448       9.254       9.034       8.856       8.677       8.458       8.138    
        7.793       7.490       7.191       6.784       6.373       6.130       5.957       5.783       5.531       5.253    
        4.994       4.728       4.357       3.695       2.699       3.030       3.483       3.769       3.924       3.988    
        4.010       3.989       3.945       3.851       3.724       3.561       3.267       2.864       2.501       2.162    
        1.796       1.389      0.9955      0.7249      0.5648      0.4276      0.3077      0.2333      0.1285       0.000    
  25    10.00       9.772       9.627       9.442       9.239       9.042       8.860       8.690       8.422       8.104    
        7.815       7.523       7.157       6.712       6.393       6.171       5.978       5.772       5.537       5.279    
        5.000       4.734       4.057       2.649     -0.5405       2.041       3.017       3.507       3.769       3.890    
        3.929       3.924       3.880       3.772       3.640       3.441       3.137       2.752       2.425       2.058    
        1.637       1.254      0.9318      0.7203      0.5891      0.4609      0.3370      0.2484      0.1622       0.000    
  26    10.00       9.805       9.668       9.470       9.261       9.089       8.900       8.686       8.412       8.165    
        7.915       7.526       7.065       6.687       6.454       6.254       6.023       5.756       5.507       5.286    
        5.070       4.777       4.151       3.127       2.052       2.573       3.136       3.493       3.715       3.847    
        3.884       3.877       3.817       3.713       3.586       3.371       2.976       2.620       2.343       1.894    
        1.436       1.117      0.9268      0.7833      0.6433      0.5007      0.3715      0.2722      0.1626       0.000    
  27    10.00       9.848       9.682       9.514       9.328       9.129       8.942       8.735       8.490       8.253    
        7.919       7.463       7.064       6.755       6.550       6.324       6.022       5.729       5.526       5.349    
        5.168       4.864       4.394       3.827       3.222       3.237       3.435       3.622       3.766       3.847    
        3.868       3.853       3.793       3.686       3.514       3.179       2.806       2.524       2.096       1.650    
        1.318       1.108      0.9675      0.8459      0.7168      0.5521      0.3978      0.2978      0.2002       0.000    
  28    10.00       9.862       9.722       9.562       9.394       9.206       9.013       8.805       8.574       8.301    
        7.894       7.481       7.134       6.837       6.623       6.395       6.137       5.848       5.576       5.400    
        5.237       5.019       4.704       4.277       3.892       3.718       3.728       3.814       3.852       3.882    
        3.879       3.848       3.778       3.623       3.368       3.016       2.692       2.304       1.878       1.577    
        1.331       1.155       1.016      0.8951      0.7622      0.6045      0.4514      0.3392      0.2069       0.000    
  29    10.00       9.869       9.737       9.618       9.456       9.284       9.099       8.890       8.647       8.283    
        7.884       7.523       7.194       6.948       6.703       6.456       6.220       5.988       5.723       5.492    
        5.317       5.132       4.914       4.650       4.300       4.112       4.040       4.009       3.993       3.959    
        3.912       3.846       3.752       3.544       3.231       2.905       2.559       2.162       1.831       1.609    
        1.405       1.211       1.058      0.9399      0.8102      0.6484      0.4904      0.3592      0.2094       0.000    
  30    10.00       9.881       9.772       9.667       9.528       9.370       9.205       8.974       8.671       8.302    
        7.892       7.526       7.251       7.009       6.769       6.529       6.331       6.130       5.890       5.643    
        5.432       5.261       5.071       4.881       4.656       4.453       4.370       4.240       4.168       4.067    
        3.955       3.840       3.695       3.472       3.202       2.885       2.521       2.148       1.900       1.692    
        1.460       1.268       1.121      0.9795      0.8334      0.6898      0.5238      0.3752      0.2267       0.000    
  31    10.00       9.902       9.808       9.711       9.609       9.486       9.307       9.037       8.689       8.306    
        7.911       7.571       7.311       7.064       6.849       6.628       6.419       6.265       6.033       5.795    
        5.591       5.414       5.246       5.073       4.932       4.770       4.610       4.462       4.314       4.168    
        3.999       3.830       3.674       3.483       3.209       2.871       2.519       2.204       1.998       1.811    
        1.570       1.347       1.175       1.025      0.8789      0.7263      0.5592      0.4018      0.2212       0.000    
  32    10.00       9.918       9.846       9.761       9.664       9.553       9.377       9.074       8.750       8.401    
        7.985       7.632       7.373       7.141       6.926       6.740       6.553       6.359       6.171       5.944    
        5.729       5.536       5.374       5.215       5.084       4.970       4.792       4.623       4.434       4.236    
        4.048       3.867       3.685       3.494       3.232       2.923       2.624       2.343       2.122       1.911    
        1.687       1.454       1.268       1.092      0.9238      0.7848      0.6132      0.4042      0.2010       0.000    
  33    10.00       9.930       9.871       9.804       9.709       9.585       9.364       9.073       8.801       8.481    
        8.078       7.728       7.461       7.211       7.013       6.852       6.686       6.492       6.283       6.076    
        5.852       5.645       5.457       5.300       5.193       5.078       4.916       4.716       4.521       4.327    
        4.134       3.958       3.766       3.517       3.265       2.981       2.723       2.497       2.266       2.036    
        1.827       1.604       1.398       1.213       1.024      0.8579      0.6644      0.4166      0.1963       0.000    
  34    10.00       9.937       9.898       9.839       9.725       9.556       9.345       9.130       8.853       8.507    
        8.155       7.816       7.533       7.286       7.105       6.976       6.800       6.606       6.380       6.186    
        5.983       5.741       5.552       5.405       5.297       5.170       4.986       4.806       4.600       4.389    
        4.227       4.059       3.889       3.639       3.371       3.106       2.868       2.665       2.425       2.191    
        1.988       1.782       1.563       1.372       1.170      0.9737      0.7250      0.4663      0.2458       0.000    
  35    10.00       9.948       9.904       9.831       9.691       9.515       9.362       9.180       8.928       8.559    
        8.187       7.877       7.595       7.378       7.220       7.075       6.896       6.683       6.468       6.253    
        6.072       5.859       5.667       5.529       5.412       5.286       5.085       4.864       4.649       4.448    
        4.323       4.169       3.983       3.792       3.557       3.270       3.024       2.855       2.609       2.340    
        2.146       1.939       1.730       1.542       1.314       1.094      0.8416      0.5620      0.2808       0.000    
  36    10.00       9.946       9.885       9.803       9.666       9.499       9.362       9.196       8.946       8.606    
        8.221       7.889       7.676       7.498       7.349       7.173       6.960       6.756       6.532       6.277    
        6.087       5.920       5.753       5.634       5.517       5.367       5.161       4.930       4.711       4.518    
        4.387       4.258       4.079       3.895       3.692       3.429       3.176       2.985       2.766       2.473    
        2.253       2.045       1.831       1.674       1.455       1.209      0.9552      0.6620      0.3368       0.000    
  37    10.00       9.930       9.863       9.776       9.638       9.486       9.334       9.176       8.949       8.587    
        8.202       7.926       7.790       7.622       7.428       7.255       7.019       6.777       6.515       6.266    
        6.108       5.975       5.819       5.699       5.565       5.395       5.203       4.972       4.772       4.613    
        4.467       4.321       4.135       3.970       3.757       3.505       3.302       3.114       2.869       2.579    
        2.315       2.110       1.937       1.761       1.552       1.322       1.078      0.7489      0.4058       0.000    
  38    10.00       9.924       9.838       9.746       9.620       9.473       9.307       9.142       8.905       8.572    
        8.277       8.052       7.878       7.727       7.515       7.259       7.000       6.723       6.447       6.279    
        6.153       5.998       5.858       5.750       5.614       5.418       5.191       4.980       4.850       4.716    
        4.554       4.386       4.203       4.033       3.823       3.586       3.400       3.210       2.919       2.613    
        2.383       2.191       2.015       1.837       1.651       1.428       1.176      0.8582      0.4454       0.000    
  39    10.00       9.904       9.819       9.728       9.605       9.443       9.266       9.094       8.880       8.611    
        8.380       8.212       8.018       7.810       7.518       7.197       6.885       6.594       6.422       6.306    
        6.149       5.988       5.885       5.785       5.661       5.440       5.203       5.045       4.926       4.788    
        4.617       4.453       4.266       4.081       3.900       3.700       3.485       3.263       2.961       2.658    
        2.415       2.222       2.084       1.942       1.739       1.511       1.256      0.9105      0.4460       0.000    
  40    10.00       9.889       9.806       9.716       9.593       9.426       9.244       9.071       8.889       8.667    
        8.477       8.334       8.105       7.787       7.426       7.072       6.756       6.550       6.429       6.301    
        6.132       5.990       5.894       5.785       5.641       5.465       5.294       5.129       4.985       4.858    
        4.701       4.514       4.321       4.144       3.974       3.771       3.539       3.314       2.985       2.653    
        2.432       2.270       2.126       2.003       1.797       1.544       1.309      0.9467      0.4675       0.000    
  41    10.00       9.898       9.802       9.703       9.568       9.417       9.258       9.104       8.930       8.732    
        8.553       8.385       8.090       7.696       7.299       6.978       6.723       6.544       6.422       6.279    
        6.110       5.988       5.888       5.772       5.641       5.508       5.377       5.219       5.049       4.901    
        4.758       4.578       4.381       4.217       4.038       3.838       3.601       3.286       2.922       2.665    
        2.484       2.315       2.181       2.027       1.809       1.558       1.350       1.005      0.5148       0.000    
  42    10.00       9.902       9.796       9.705       9.588       9.447       9.290       9.119       8.964       8.814    
        8.605       8.316       7.951       7.547       7.191       6.939       6.719       6.548       6.410       6.240    
        6.084       5.972       5.872       5.785       5.669       5.568       5.446       5.267       5.086       4.952    
        4.822       4.628       4.415       4.261       4.107       3.882       3.578       3.201       2.876       2.678    
        2.534       2.389       2.224       2.023       1.797       1.595       1.385       1.047      0.5388       0.000    
  43    10.00       9.903       9.807       9.714       9.622       9.498       9.342       9.174       9.008       8.799    
        8.510       8.181       7.808       7.418       7.139       6.927       6.719       6.544       6.378       6.211    
        6.063       5.958       5.880       5.812       5.709       5.597       5.480       5.307       5.143       5.030    
        4.867       4.652       4.451       4.298       4.121       3.848       3.490       3.126       2.899       2.742    
        2.589       2.432       2.231       2.014       1.807       1.611       1.423       1.044      0.4704       0.000    
  44    10.00       9.898       9.810       9.730       9.629       9.535       9.403       9.203       8.983       8.700    
        8.410       8.063       7.655       7.371       7.153       6.921       6.694       6.498       6.319       6.169    
        6.062       5.975       5.900       5.828       5.740       5.627       5.489       5.352       5.223       5.081    
        4.924       4.729       4.502       4.287       4.080       3.801       3.427       3.111       2.928       2.777    
        2.629       2.456       2.255       2.061       1.844       1.626       1.380      0.8943      0.3953       0.000    
  45    10.00       9.898       9.826       9.734       9.639       9.555       9.368       9.142       8.886       8.609    
        8.364       7.950       7.570       7.357       7.137       6.885       6.631       6.431       6.272       6.162    
        6.084       6.006       5.927       5.841       5.746       5.643       5.527       5.409       5.304       5.159    
        4.971       4.762       4.532       4.272       4.036       3.733       3.381       3.132       2.981       2.829    
        2.638       2.438       2.261       2.086       1.896       1.662       1.245      0.7501      0.3800       0.000    
  46    10.00       9.916       9.839       9.742       9.638       9.482       9.286       9.100       8.867       8.594    
        8.244       7.864       7.558       7.292       7.068       6.820       6.567       6.410       6.290       6.187    
        6.115       6.043       5.950       5.847       5.753       5.661       5.566       5.461       5.356       5.223    
        5.048       4.831       4.575       4.281       3.953       3.626       3.368       3.197       3.029       2.854    
        2.634       2.426       2.250       2.109       1.905       1.578       1.117      0.7071      0.3593       0.000    
  47    10.00       9.935       9.864       9.763       9.584       9.396       9.229       9.070       8.862       8.522    
        8.145       7.791       7.498       7.275       7.034       6.759       6.541       6.401       6.306       6.221    
        6.144       6.061       5.969       5.868       5.774       5.694       5.609       5.505       5.384       5.253    
        5.099       4.906       4.577       4.188       3.879       3.637       3.412       3.265       3.110       2.867    
        2.605       2.386       2.221       2.106       1.852       1.461       1.038      0.6808      0.3495       0.000    
  48    10.00       9.943       9.868       9.718       9.538       9.382       9.203       9.043       8.821       8.464    
        8.053       7.733       7.495       7.229       6.949       6.703       6.538       6.401       6.310       6.247    
        6.170       6.071       5.969       5.881       5.806       5.737       5.656       5.542       5.399       5.247    
        5.087       4.867       4.528       4.208       3.936       3.695       3.484       3.318       3.119       2.829    
        2.551       2.375       2.237       2.021       1.681       1.331      0.9918      0.6861      0.3691       0.000    
  49    10.00       9.940       9.833       9.699       9.552       9.371       9.191       9.011       8.737       8.360    
        8.005       7.705       7.418       7.166       6.951       6.719       6.507       6.383       6.322       6.262    
        6.190       6.077       5.965       5.891       5.829       5.775       5.685       5.546       5.385       5.239    
        5.072       4.804       4.516       4.302       4.053       3.770       3.516       3.315       3.085       2.775    
        2.550       2.396       2.190       1.865       1.562       1.276      0.9809      0.6863      0.3681       0.000    
  50    10.00       9.932       9.821       9.684       9.551       9.382       9.181       8.957       8.668       8.370    
        8.000       7.624       7.358       7.157       6.975       6.713       6.478       6.385       6.331       6.270    
        6.198       6.083       5.967       5.896       5.843       5.793       5.691       5.533       5.370       5.231    
        5.060       4.783       4.560       4.368       4.108       3.828       3.562       3.287       2.972       2.712    
        2.596       2.420       2.103       1.777       1.551       1.274      0.9948      0.6723      0.2998       0.000    

 HEAD WILL BE SAVED ON UNIT   51 AT END OF TIME STEP  97, STRESS PERIOD    2

 DRAWDOWN WILL BE SAVED ON UNIT   52 AT END OF TIME STEP  97, STRESS PERIOD    2
1
  VOLUMETRIC BUDGET FOR ENTIRE MODEL AT END OF TIME STEP 97 IN STRESS PERIOD   2
  ------------------------------------------------------------------------------

     CUMULATIVE VOLUMES      L**3       RATES FOR THIS TIME STEP      L**3/T
     ------------------                 ------------------------

           IN:                                      IN:
           ---                                      ---
             STORAGE =       44013.6328               STORAGE =         366.2144
       CONSTANT HEAD =       62173.7539         CONSTANT HEAD =         700.8232
               WELLS =           0.0000                 WELLS =           0.0000

            TOTAL IN =      106187.3906              TOTAL IN =        1067.0376

          OUT:                                     OUT:
          ----                                     ----
             STORAGE =       9.4320E-03               STORAGE =           0.0000
       CONSTANT HEAD =       57687.3711         CONSTANT HEAD =         567.0373
               WELLS =       48500.0000                 WELLS =         500.0000

           TOTAL OUT =      106187.3828             TOTAL OUT =        1067.0374

            IN - OUT =       7.8125E-03              IN - OUT =       2.4414E-04

 PERCENT DISCREPANCY =           0.00     PERCENT DISCREPANCY =           0.00






          TIME SUMMARY AT END OF TIME STEP  97 IN STRESS PERIOD    2
                    SECONDS     MINUTES      HOURS       DAYS        YEARS
                    -----------------------------------------------------------
   TIME STEP LENGTH  86400.      1440.0      24.000      1.0000     2.73785E-03
 STRESS PERIOD TIME 8.38080E+06 1.39680E+05  2328.0      97.000     0.26557    
         TOTAL TIME 8.46720E+06 1.41120E+05  2352.0      98.000     0.26831    
1
 
 SOLVING FOR HEAD 

 OUTPUT CONTROL FOR STRESS PERIOD    2   TIME STEP  98
    SAVE HEAD FOR ALL LAYERS
    SAVE DRAWDOWN FOR ALL LAYERS
    SAVE BUDGET
    PRINT HEAD FOR ALL LAYERS
    PRINT BUDGET
 UBDSV1 SAVING "         STORAGE" ON UNIT  53 AT TIME STEP 98, STRESS PERIOD   2
 UBDSV2 SAVING "   CONSTANT HEAD" ON UNIT  53 AT TIME STEP 98, STRESS PERIOD   2
 UBDSV1 SAVING "FLOW RIGHT FACE " ON UNIT  53 AT TIME STEP 98, STRESS PERIOD   2
 UBDSV1 SAVING "FLOW FRONT FACE " ON UNIT  53 AT TIME STEP 98, STRESS PERIOD   2
1
              HEAD IN LAYER   1 AT END OF TIME STEP  98 IN STRESS PERIOD    2
  ---------------------------------------------------------------------------

            1           2           3           4           5           6           7           8           9          10
           11          12          13          14          15          16          17          18          19          20
           21          22          23          24          25          26          27          28          29          30
           31          32          33          34          35          36          37          38          39          40
           41          42          43          44          45          46          47          48          49          50
 ........................................................................................................................
   1    10.00       9.952       9.884       9.806       9.731       9.645       9.564       9.485       9.384       9.286    
        9.210       9.135       9.059       8.986       8.867       8.724       8.565       8.439       8.375       8.300    
        8.212       8.143       8.075       7.997       7.895       7.694       7.469       7.312       7.161       7.019    
        6.835       6.541       6.166       5.751       5.321       4.864       4.414       4.040       3.554       3.024    
        2.591       2.178       1.721       1.338       1.103      0.9044      0.7473      0.6335      0.4252       0.000    
   2    10.00       9.951       9.889       9.811       9.735       9.659       9.579       9.473       9.363       9.283    
        9.217       9.153       9.090       8.998       8.862       8.712       8.562       8.438       8.372       8.289    
        8.200       8.148       8.093       8.012       7.881       7.685       7.480       7.319       7.166       7.028    
        6.822       6.514       6.120       5.646       5.187       4.747       4.357       3.996       3.500       2.988    
        2.555       2.091       1.674       1.375       1.155      0.9842      0.7897      0.6165      0.3440       0.000    
   3    10.00       9.944       9.883       9.813       9.746       9.669       9.566       9.455       9.377       9.304    
        9.231       9.173       9.117       9.028       8.889       8.704       8.540       8.440       8.363       8.278    
        8.206       8.151       8.094       7.985       7.842       7.666       7.488       7.361       7.182       7.002    
        6.742       6.376       5.923       5.462       5.059       4.651       4.270       3.881       3.366       2.893    
        2.522       2.098       1.718       1.445       1.228       1.052      0.8213      0.5508      0.2497       0.000    
   4    10.00       9.944       9.884       9.816       9.740       9.651       9.544       9.460       9.392       9.317    
        9.253       9.205       9.142       9.042       8.906       8.708       8.538       8.444       8.357       8.281    
        8.203       8.135       8.062       7.947       7.805       7.647       7.484       7.327       7.167       6.962    
        6.634       6.145       5.662       5.314       4.982       4.562       4.106       3.650       3.239       2.886    
        2.541       2.150       1.795       1.550       1.306       1.082      0.7974      0.4951      0.2372       0.000    
   5    10.00       9.940       9.879       9.803       9.726       9.643       9.547       9.474       9.404       9.335    
        9.278       9.231       9.148       9.031       8.880       8.700       8.556       8.453       8.366       8.264    
        8.169       8.095       8.005       7.894       7.767       7.603       7.441       7.296       7.136       6.882    
        6.406       5.854       5.468       5.197       4.869       4.418       3.948       3.538       3.234       2.917    
        2.581       2.224       1.875       1.648       1.387       1.064      0.7253      0.4411      0.2218       0.000    
   6    10.00       9.932       9.860       9.796       9.726       9.635       9.554       9.491       9.418       9.352    
        9.299       9.241       9.136       9.004       8.872       8.721       8.575       8.456       8.340       8.221    
        8.126       8.038       7.960       7.859       7.696       7.534       7.405       7.256       7.032       6.643    
        6.115       5.613       5.292       5.061       4.763       4.317       3.854       3.515       3.260       2.975    
        2.673       2.361       2.006       1.704       1.357       1.003      0.6398      0.3801      0.2093       0.000    
   7    10.00       9.919       9.848       9.789       9.716       9.641       9.569       9.509       9.441       9.376    
        9.311       9.223       9.108       8.983       8.857       8.739       8.585       8.421       8.288       8.170    
        8.071       7.986       7.919       7.790       7.623       7.488       7.355       7.152       6.782       6.281    
        5.780       5.378       5.164       4.960       4.615       4.196       3.887       3.563       3.289       3.107    
        2.824       2.492       2.076       1.644       1.257      0.8694      0.5501      0.3823      0.1969       0.000    
   8    10.00       9.918       9.854       9.787       9.714       9.647       9.584       9.523       9.461       9.398    
        9.311       9.199       9.085       8.966       8.850       8.716       8.522       8.349       8.240       8.127    
        8.016       7.943       7.842       7.702       7.555       7.414       7.187       6.868       6.398       5.959    
        5.589       5.286       5.094       4.860       4.491       4.148       3.870       3.633       3.426       3.219    
        2.943       2.527       2.016       1.556       1.154      0.8122      0.5814      0.3740      0.1793       0.000    
   9    10.00       9.931       9.853       9.779       9.725       9.669       9.606       9.541       9.472       9.405    
        9.304       9.175       9.050       8.931       8.807       8.647       8.459       8.300       8.183       8.067    
        7.968       7.874       7.736       7.602       7.464       7.286       6.955       6.526       6.086       5.768    
        5.466       5.222       5.011       4.721       4.381       4.097       3.889       3.718       3.534       3.307    
        2.977       2.523       2.004       1.549       1.160      0.8287      0.5858      0.3767      0.1927       0.000    
  10    10.00       9.928       9.846       9.786       9.735       9.681       9.623       9.568       9.487       9.387    
        9.263       9.128       9.008       8.897       8.767       8.571       8.372       8.234       8.127       8.019    
        7.927       7.794       7.641       7.489       7.328       7.065       6.636       6.193       5.824       5.570    
        5.378       5.175       4.918       4.625       4.314       4.081       3.928       3.780       3.582       3.320    
        2.942       2.473       2.001       1.615       1.252      0.9100      0.6033      0.3997      0.2149       0.000    
  11    10.00       9.912       9.846       9.796       9.746       9.700       9.647       9.568       9.457       9.344    
        9.220       9.087       8.976       8.840       8.663       8.475       8.312       8.190       8.092       7.983    
        7.843       7.673       7.464       7.290       7.015       6.646       6.282       5.961       5.656       5.472    
        5.326       5.062       4.785       4.544       4.310       4.137       3.979       3.791       3.546       3.229    
        2.874       2.514       2.065       1.686       1.342       1.004      0.6764      0.3920      0.1645       0.000    
  12    10.00       9.915       9.854       9.801       9.758       9.710       9.648       9.537       9.408       9.299    
        9.183       9.044       8.909       8.746       8.591       8.417       8.260       8.156       8.045       7.893    
        7.656       7.401       7.154       6.909       6.541       6.264       6.063       5.749       5.501       5.369    
        5.204       4.955       4.732       4.512       4.349       4.184       3.987       3.757       3.459       3.145    
        2.847       2.524       2.092       1.721       1.399       1.046      0.7098      0.3687      0.1224       0.000    
  13    10.00       9.931       9.873       9.817       9.766       9.708       9.609       9.481       9.358       9.247    
        9.116       8.979       8.838       8.669       8.497       8.334       8.220       8.089       7.943       7.634    
        7.276       7.007       6.735       6.407       6.128       5.999       5.772       5.497       5.367       5.246    
        5.053       4.844       4.669       4.512       4.374       4.220       3.987       3.679       3.396       3.103    
        2.822       2.489       2.026       1.683       1.407       1.034      0.6501      0.3171      9.7068E-02   0.000    
  14    10.00       9.947       9.896       9.836       9.765       9.669       9.539       9.410       9.300       9.177    
        9.042       8.915       8.754       8.575       8.423       8.282       8.106       7.933       7.638       7.180    
        6.838       6.579       6.217       5.964       5.838       5.723       5.500       5.333       5.205       5.079    
        4.913       4.770       4.650       4.519       4.372       4.223       3.958       3.626       3.336       3.036    
        2.751       2.339       1.901       1.634       1.321      0.9859      0.6481      0.2923      8.3257E-02   0.000    
  15    10.00       9.957       9.904       9.837       9.751       9.609       9.452       9.338       9.235       9.113    
        9.007       8.875       8.668       8.464       8.323       8.101       7.876       7.695       7.243       6.745    
        6.439       6.094       5.793       5.702       5.639       5.492       5.304       5.149       5.052       4.956    
        4.835       4.733       4.637       4.523       4.380       4.200       3.891       3.524       3.222       2.953    
        2.650       2.237       1.897       1.564       1.194      0.8997      0.5771      0.2670      9.0326E-02   0.000    
  16    10.00       9.964       9.907       9.823       9.696       9.527       9.386       9.296       9.204       9.081    
        8.954       8.757       8.496       8.300       8.096       7.839       7.691       7.320       6.688       6.257    
        5.992       5.700       5.597       5.547       5.427       5.237       5.092       5.018       4.977       4.897    
        4.796       4.705       4.624       4.507       4.335       4.087       3.735       3.424       3.192       2.914    
        2.564       2.161       1.797       1.435       1.119      0.7943      0.5160      0.2688      9.5957E-02   0.000    
  17    10.00       9.959       9.889       9.776       9.631       9.456       9.331       9.252       9.142       9.010    
        8.779       8.503       8.286       8.086       7.824       7.568       7.255       6.665       6.147       5.883    
        5.679       5.529       5.459       5.335       5.148       5.014       4.975       4.956       4.916       4.836    
        4.749       4.671       4.585       4.465       4.211       3.890       3.622       3.426       3.206       2.871    
        2.432       2.041       1.703       1.366       1.000      0.6608      0.4388      0.2433      0.1014       0.000    
  18    10.00       9.941       9.851       9.719       9.528       9.379       9.292       9.173       9.038       8.839    
        8.545       8.316       8.114       7.808       7.466       7.116       6.679       6.173       5.862       5.663    
        5.511       5.382       5.267       5.099       4.972       4.934       4.918       4.898       4.842       4.766    
        4.695       4.616       4.506       4.319       4.059       3.806       3.603       3.445       3.167       2.755    
        2.335       1.930       1.591       1.276      0.9256      0.6081      0.3702      0.2030      9.4791E-02   0.000    
  19    10.00       9.920       9.816       9.623       9.433       9.346       9.234       9.079       8.914       8.688    
        8.428       8.202       7.875       7.440       7.087       6.746       6.283       5.877       5.683       5.555    
        5.395       5.232       5.101       4.962       4.896       4.879       4.857       4.814       4.744       4.679    
        4.608       4.521       4.378       4.191       3.987       3.778       3.608       3.406       3.010       2.606    
        2.275       1.862       1.498       1.191      0.8486      0.5470      0.3327      0.1925      9.6395E-02   0.000    
  20    10.00       9.897       9.736       9.536       9.395       9.296       9.171       9.005       8.808       8.598    
        8.327       7.990       7.548       7.152       6.841       6.437       6.021       5.817       5.654       5.479    
        5.305       5.134       4.974       4.873       4.828       4.792       4.740       4.694       4.626       4.566    
        4.498       4.411       4.270       4.113       3.934       3.761       3.583       3.267       2.856       2.517    
        2.152       1.752       1.429       1.124      0.8057      0.4911      0.2889      0.1941      9.8086E-02   0.000    
  21    10.00       9.836       9.671       9.506       9.359       9.247       9.109       8.897       8.697       8.494    
        8.141       7.718       7.306       6.983       6.652       6.267       5.972       5.794       5.607       5.417    
        5.205       5.010       4.870       4.766       4.689       4.620       4.578       4.536       4.465       4.419    
        4.373       4.282       4.166       4.036       3.881       3.718       3.468       3.152       2.801       2.401    
        2.036       1.662       1.384       1.104      0.7003      0.4151      0.2961      0.2161      0.1039       0.000    
  22    10.00       9.812       9.617       9.456       9.331       9.196       8.994       8.783       8.605       8.336    
        7.965       7.525       7.172       6.905       6.543       6.188       5.941       5.758       5.573       5.343    
        5.099       4.902       4.719       4.558       4.454       4.404       4.370       4.313       4.290       4.263    
        4.230       4.163       4.079       3.962       3.824       3.667       3.409       3.100       2.688       2.296    
        1.982       1.644       1.336      0.9218      0.5779      0.4166      0.3135      0.2087      8.2955E-02   0.000    
  23    10.00       9.769       9.579       9.446       9.308       9.107       8.880       8.715       8.491       8.212    
        7.835       7.445       7.173       6.834       6.445       6.137       5.928       5.760       5.551       5.276    
        5.015       4.783       4.541       4.253       3.998       3.947       4.019       4.053       4.102       4.120    
        4.108       4.068       3.998       3.905       3.775       3.613       3.376       2.993       2.563       2.242    
        1.943       1.559       1.116      0.7559      0.5649      0.4282      0.3137      0.1993      9.2826E-02   0.000    
  24    10.00       9.737       9.599       9.446       9.252       9.031       8.852       8.673       8.453       8.133    
        7.788       7.484       7.184       6.776       6.365       6.122       5.949       5.774       5.522       5.244    
        4.985       4.718       4.347       3.686       2.689       3.020       3.473       3.759       3.914       3.978    
        4.001       3.979       3.936       3.842       3.716       3.553       3.259       2.858       2.496       2.157    
        1.793       1.386      0.9937      0.7236      0.5638      0.4269      0.3072      0.2329      0.1282       0.000    
  25    10.00       9.771       9.625       9.440       9.237       9.039       8.856       8.686       8.418       8.099    
        7.809       7.517       7.150       6.704       6.385       6.163       5.969       5.764       5.528       5.270    
        4.990       4.724       4.047       2.639     -0.5512       2.031       3.007       3.497       3.759       3.880    
        3.919       3.914       3.870       3.763       3.631       3.433       3.130       2.746       2.420       2.053    
        1.634       1.251      0.9302      0.7191      0.5881      0.4601      0.3364      0.2480      0.1620       0.000    
  26    10.00       9.804       9.667       9.468       9.259       9.086       8.897       8.682       8.408       8.160    
        7.909       7.520       7.058       6.679       6.446       6.245       6.015       5.748       5.498       5.277    
        5.061       4.768       4.142       3.118       2.042       2.562       3.126       3.483       3.705       3.837    
        3.875       3.868       3.808       3.704       3.577       3.363       2.969       2.614       2.338       1.890    
        1.433       1.115      0.9253      0.7821      0.6423      0.4999      0.3709      0.2718      0.1623       0.000    
  27    10.00       9.848       9.681       9.513       9.326       9.126       8.939       8.731       8.486       8.248    
        7.914       7.457       7.057       6.748       6.542       6.316       6.014       5.720       5.517       5.340    
        5.159       4.855       4.384       3.817       3.212       3.227       3.425       3.612       3.756       3.837    
        3.859       3.843       3.784       3.677       3.506       3.172       2.800       2.518       2.091       1.647    
        1.316       1.106      0.9660      0.8446      0.7157      0.5512      0.3972      0.2973      0.1998       0.000    
  28    10.00       9.862       9.722       9.561       9.392       9.204       9.010       8.801       8.570       8.296    
        7.889       7.474       7.127       6.829       6.615       6.387       6.128       5.839       5.567       5.391    
        5.228       5.010       4.695       4.267       3.882       3.708       3.718       3.804       3.842       3.872    
        3.869       3.839       3.769       3.615       3.360       3.009       2.687       2.300       1.875       1.574    
        1.329       1.154       1.014      0.8938      0.7610      0.6036      0.4508      0.3387      0.2065       0.000    
  29    10.00       9.869       9.736       9.616       9.454       9.282       9.096       8.887       8.643       8.278    
        7.878       7.517       7.188       6.941       6.695       6.449       6.212       5.980       5.714       5.484    
        5.308       5.123       4.905       4.641       4.290       4.102       4.030       4.000       3.984       3.950    
        3.903       3.837       3.744       3.536       3.224       2.899       2.554       2.158       1.828       1.606    
        1.403       1.209       1.056      0.9385      0.8090      0.6475      0.4897      0.3587      0.2091       0.000    
  30    10.00       9.881       9.771       9.666       9.526       9.368       9.203       8.971       8.668       8.298    
        7.886       7.520       7.245       7.002       6.761       6.521       6.323       6.122       5.881       5.634    
        5.423       5.252       5.062       4.871       4.647       4.443       4.361       4.230       4.159       4.058    
        3.946       3.832       3.688       3.466       3.197       2.880       2.517       2.145       1.897       1.689    
        1.458       1.266       1.119      0.9781      0.8322      0.6888      0.5231      0.3746      0.2264       0.000    
  31    10.00       9.902       9.807       9.710       9.608       9.484       9.305       9.034       8.686       8.302    
        7.906       7.565       7.304       7.057       6.842       6.621       6.411       6.257       6.025       5.787    
        5.583       5.405       5.237       5.064       4.923       4.761       4.600       4.453       4.305       4.160    
        3.992       3.823       3.668       3.477       3.204       2.867       2.516       2.201       1.995       1.808    
        1.567       1.345       1.173       1.023      0.8777      0.7254      0.5584      0.4013      0.2209       0.000    
  32    10.00       9.917       9.846       9.761       9.663       9.552       9.376       9.072       8.747       8.397    
        7.980       7.626       7.367       7.134       6.919       6.733       6.546       6.351       6.163       5.935    
        5.721       5.527       5.365       5.207       5.075       4.961       4.783       4.615       4.426       4.228    
        4.041       3.861       3.679       3.488       3.228       2.919       2.620       2.340       2.119       1.908    
        1.685       1.452       1.267       1.090      0.9226      0.7838      0.6124      0.4037      0.2007       0.000    
  33    10.00       9.929       9.871       9.803       9.708       9.583       9.362       9.070       8.798       8.478    
        8.073       7.723       7.456       7.205       7.006       6.845       6.679       6.485       6.276       6.069    
        5.844       5.637       5.448       5.292       5.184       5.070       4.907       4.708       4.514       4.320    
        4.128       3.952       3.761       3.511       3.261       2.977       2.719       2.493       2.263       2.034    
        1.824       1.602       1.397       1.211       1.023      0.8569      0.6636      0.4161      0.1961       0.000    
  34    10.00       9.937       9.898       9.839       9.724       9.555       9.343       9.128       8.850       8.504    
        8.151       7.811       7.528       7.280       7.099       6.969       6.793       6.599       6.373       6.178    
        5.976       5.733       5.544       5.397       5.289       5.162       4.978       4.798       4.593       4.383    
        4.222       4.054       3.884       3.635       3.367       3.102       2.864       2.662       2.422       2.189    
        1.985       1.780       1.561       1.370       1.169      0.9727      0.7243      0.4659      0.2456       0.000    
  35    10.00       9.948       9.904       9.831       9.691       9.513       9.360       9.178       8.926       8.556    
        8.182       7.872       7.590       7.373       7.214       7.069       6.889       6.676       6.461       6.245    
        6.065       5.852       5.659       5.522       5.405       5.279       5.078       4.857       4.643       4.443    
        4.318       4.165       3.978       3.788       3.553       3.267       3.021       2.853       2.606       2.338    
        2.144       1.937       1.729       1.540       1.313       1.093      0.8409      0.5615      0.2806       0.000    
  36    10.00       9.945       9.884       9.803       9.665       9.497       9.360       9.194       8.944       8.603    
        8.217       7.885       7.671       7.493       7.343       7.167       6.954       6.750       6.525       6.271    
        6.080       5.914       5.746       5.627       5.510       5.361       5.155       4.924       4.706       4.513    
        4.382       4.254       4.075       3.891       3.688       3.426       3.173       2.982       2.764       2.471    
        2.251       2.043       1.830       1.673       1.454       1.208      0.9545      0.6615      0.3366       0.000    
  37    10.00       9.930       9.863       9.775       9.637       9.485       9.333       9.174       8.947       8.584    
        8.198       7.922       7.786       7.617       7.423       7.250       7.013       6.771       6.509       6.261    
        6.102       5.969       5.813       5.693       5.559       5.389       5.198       4.967       4.768       4.609    
        4.462       4.317       4.131       3.967       3.754       3.502       3.299       3.112       2.867       2.576    
        2.313       2.108       1.936       1.759       1.551       1.322       1.078      0.7484      0.4056       0.000    
  38    10.00       9.923       9.838       9.745       9.619       9.472       9.306       9.141       8.903       8.569    
        8.274       8.048       7.873       7.723       7.510       7.254       6.995       6.717       6.442       6.274    
        6.148       5.993       5.853       5.745       5.608       5.413       5.186       4.975       4.846       4.712    
        4.550       4.383       4.200       4.029       3.820       3.583       3.398       3.208       2.916       2.611    
        2.381       2.189       2.014       1.836       1.650       1.427       1.175      0.8576      0.4451       0.000    
  39    10.00       9.904       9.818       9.727       9.604       9.442       9.264       9.092       8.877       8.609    
        8.377       8.209       8.014       7.806       7.514       7.192       6.880       6.589       6.417       6.301    
        6.144       5.983       5.880       5.781       5.657       5.436       5.199       5.042       4.922       4.784    
        4.614       4.450       4.263       4.078       3.897       3.697       3.483       3.261       2.959       2.656    
        2.414       2.220       2.083       1.941       1.737       1.510       1.255      0.9099      0.4458       0.000    
  40    10.00       9.888       9.806       9.715       9.592       9.425       9.243       9.070       8.887       8.665    
        8.474       8.331       8.101       7.783       7.422       7.068       6.752       6.546       6.425       6.296    
        6.127       5.986       5.889       5.781       5.637       5.461       5.290       5.126       4.982       4.854    
        4.697       4.511       4.318       4.141       3.971       3.768       3.536       3.311       2.983       2.651    
        2.431       2.268       2.125       2.002       1.796       1.543       1.309      0.9461      0.4673       0.000    
  41    10.00       9.897       9.802       9.702       9.567       9.416       9.257       9.103       8.928       8.730    
        8.550       8.382       8.087       7.692       7.296       6.974       6.720       6.540       6.419       6.275    
        6.107       5.984       5.884       5.768       5.638       5.504       5.374       5.216       5.045       4.898    
        4.755       4.575       4.378       4.215       4.035       3.836       3.599       3.284       2.920       2.663    
        2.483       2.313       2.180       2.025       1.808       1.557       1.349       1.004      0.5146       0.000    
  42    10.00       9.901       9.796       9.704       9.587       9.446       9.289       9.118       8.963       8.812    
        8.603       8.313       7.948       7.544       7.188       6.936       6.715       6.545       6.406       6.236    
        6.080       5.968       5.868       5.782       5.666       5.564       5.442       5.264       5.083       4.949    
        4.819       4.625       4.412       4.258       4.104       3.880       3.576       3.200       2.874       2.677    
        2.533       2.388       2.223       2.022       1.796       1.594       1.384       1.046      0.5385       0.000    
  43    10.00       9.903       9.807       9.714       9.621       9.497       9.341       9.173       9.006       8.797    
        8.508       8.178       7.805       7.415       7.136       6.924       6.716       6.541       6.375       6.207    
        6.060       5.955       5.877       5.809       5.706       5.593       5.477       5.304       5.140       5.028    
        4.864       4.649       4.448       4.295       4.119       3.846       3.488       3.125       2.897       2.741    
        2.587       2.431       2.230       2.013       1.806       1.610       1.422       1.043      0.4702       0.000    
  44    10.00       9.898       9.810       9.729       9.628       9.534       9.403       9.201       8.982       8.698    
        8.408       8.061       7.653       7.369       7.150       6.918       6.691       6.495       6.316       6.166    
        6.059       5.972       5.897       5.825       5.737       5.624       5.486       5.349       5.220       5.078    
        4.921       4.727       4.499       4.284       4.077       3.798       3.425       3.109       2.926       2.775    
        2.628       2.455       2.253       2.060       1.843       1.625       1.379      0.8938      0.3951       0.000    
  45    10.00       9.898       9.826       9.734       9.639       9.555       9.367       9.141       8.885       8.607    
        8.362       7.948       7.568       7.354       7.135       6.882       6.628       6.428       6.269       6.159    
        6.081       6.003       5.924       5.838       5.743       5.640       5.524       5.406       5.301       5.156    
        4.968       4.760       4.530       4.270       4.034       3.731       3.379       3.130       2.979       2.827    
        2.636       2.437       2.260       2.084       1.895       1.661       1.245      0.7497      0.3798       0.000    
  46    10.00       9.916       9.839       9.742       9.638       9.482       9.285       9.099       8.866       8.593    
        8.242       7.862       7.556       7.290       7.066       6.817       6.565       6.408       6.287       6.185    
        6.112       6.040       5.947       5.844       5.750       5.658       5.563       5.458       5.353       5.221    
        5.045       4.828       4.572       4.279       3.951       3.624       3.366       3.196       3.027       2.852    
        2.633       2.425       2.249       2.107       1.904       1.577       1.117      0.7067      0.3591       0.000    
  47    10.00       9.934       9.863       9.762       9.584       9.395       9.228       9.069       8.861       8.521    
        8.143       7.790       7.496       7.272       7.032       6.757       6.539       6.398       6.303       6.218    
        6.141       6.058       5.966       5.865       5.771       5.691       5.606       5.502       5.382       5.250    
        5.096       4.903       4.575       4.186       3.877       3.635       3.410       3.263       3.108       2.866    
        2.604       2.385       2.220       2.105       1.851       1.460       1.038      0.6805      0.3493       0.000    
  48    10.00       9.943       9.868       9.717       9.537       9.381       9.202       9.042       8.820       8.463    
        8.052       7.731       7.493       7.226       6.947       6.700       6.536       6.399       6.307       6.245    
        6.167       6.068       5.967       5.878       5.803       5.735       5.654       5.539       5.396       5.244    
        5.084       4.865       4.525       4.206       3.934       3.693       3.482       3.317       3.117       2.827    
        2.550       2.374       2.236       2.020       1.680       1.330      0.9913      0.6858      0.3690       0.000    
  49    10.00       9.940       9.833       9.699       9.551       9.370       9.190       9.010       8.736       8.358    
        8.003       7.703       7.416       7.164       6.949       6.716       6.504       6.380       6.319       6.259    
        6.187       6.075       5.962       5.888       5.826       5.772       5.682       5.544       5.383       5.237    
        5.070       4.801       4.514       4.299       4.051       3.768       3.514       3.313       3.084       2.774    
        2.549       2.394       2.189       1.864       1.561       1.275      0.9804      0.6859      0.3679       0.000    
  50    10.00       9.932       9.821       9.684       9.551       9.381       9.180       8.956       8.667       8.368    
        7.998       7.622       7.356       7.155       6.973       6.710       6.475       6.382       6.328       6.268    
        6.195       6.080       5.965       5.893       5.840       5.790       5.688       5.530       5.367       5.228    
        5.057       4.780       4.558       4.366       4.106       3.826       3.560       3.285       2.971       2.710    
        2.594       2.419       2.102       1.776       1.550       1.273      0.9943      0.6720      0.2996       0.000    

 HEAD WILL BE SAVED ON UNIT   51 AT END OF TIME STEP  98, STRESS PERIOD    2

 DRAWDOWN WILL BE SAVED ON UNIT   52 AT END OF TIME STEP  98, STRESS PERIOD    2
1
  VOLUMETRIC BUDGET FOR ENTIRE MODEL AT END OF TIME STEP 98 IN STRESS PERIOD   2
  ------------------------------------------------------------------------------

     CUMULATIVE VOLUMES      L**3       RATES FOR THIS TIME STEP      L**3/T
     ------------------                 ------------------------

           IN:                                      IN:
           ---                                      ---
             STORAGE =       44377.7695               STORAGE =         364.1353
       CONSTANT HEAD =       62876.0078         CONSTANT HEAD =         702.2557
               WELLS =           0.0000                 WELLS =           0.0000

            TOTAL IN =      107253.7812              TOTAL IN =        1066.3909

          OUT:                                     OUT:
          ----                                     ----
             STORAGE =       9.4320E-03               STORAGE =           0.0000
       CONSTANT HEAD =       58253.7617         CONSTANT HEAD =         566.3916
               WELLS =       49000.0000                 WELLS =         500.0000

           TOTAL OUT =      107253.7734             TOTAL OUT =        1066.3916

            IN - OUT =       7.8125E-03              IN - OUT =      -7.3242E-04

 PERCENT DISCREPANCY =           0.00     PERCENT DISCREPANCY =           0.00






          TIME SUMMARY AT END OF TIME STEP  98 IN STRESS PERIOD    2
                    SECONDS     MINUTES      HOURS       DAYS        YEARS
                    -----------------------------------------------------------
   TIME STEP LENGTH  86400.      1440.0      24.000      1.0000     2.73785E-03
 STRESS PERIOD TIME 8.46720E+06 1.41120E+05  2352.0      98.000     0.26831    
         TOTAL TIME 8.55360E+06 1.42560E+05  2376.0      99.000     0.27105    
1
 
 SOLVING FOR HEAD 

 OUTPUT CONTROL FOR STRESS PERIOD    2   TIME STEP  99
    SAVE HEAD FOR ALL LAYERS
    SAVE DRAWDOWN FOR ALL LAYERS
    SAVE BUDGET
    PRINT HEAD FOR ALL LAYERS
    PRINT BUDGET
 UBDSV1 SAVING "         STORAGE" ON UNIT  53 AT TIME STEP 99, STRESS PERIOD   2
 UBDSV2 SAVING "   CONSTANT HEAD" ON UNIT  53 AT TIME STEP 99, STRESS PERIOD   2
 UBDSV1 SAVING "FLOW RIGHT FACE " ON UNIT  53 AT TIME STEP 99, STRESS PERIOD   2
 UBDSV1 SAVING "FLOW FRONT FACE " ON UNIT  53 AT TIME STEP 99, STRESS PERIOD   2
1
              HEAD IN LAYER   1 AT END OF TIME STEP  99 IN STRESS PERIOD    2
  ---------------------------------------------------------------------------

            1           2           3           4           5           6           7           8           9          10
           11          12          13          14          15          16          17          18          19          20
           21          22          23          24          25          26          27          28          29          30
           31          32          33          34          35          36          37          38          39          40
           41          42          43          44          45          46          47          48          49          50
 ........................................................................................................................
   1    10.00       9.952       9.884       9.806       9.731       9.645       9.563       9.484       9.383       9.284    
        9.208       9.134       9.057       8.984       8.865       8.721       8.562       8.436       8.372       8.297    
        8.209       8.139       8.071       7.994       7.891       7.691       7.465       7.308       7.157       7.015    
        6.831       6.537       6.162       5.746       5.317       4.860       4.410       4.036       3.550       3.021    
        2.589       2.176       1.719       1.337       1.102      0.9034      0.7464      0.6328      0.4247       0.000    
   2    10.00       9.951       9.889       9.811       9.734       9.658       9.578       9.472       9.362       9.281    
        9.215       9.151       9.088       8.996       8.860       8.710       8.560       8.436       8.369       8.286    
        8.197       8.145       8.090       8.009       7.878       7.681       7.476       7.315       7.162       7.023    
        6.818       6.510       6.116       5.642       5.183       4.743       4.353       3.992       3.497       2.985    
        2.552       2.089       1.673       1.374       1.153      0.9831      0.7888      0.6158      0.3436       0.000    
   3    10.00       9.944       9.883       9.813       9.746       9.669       9.565       9.454       9.376       9.303    
        9.229       9.171       9.115       9.027       8.887       8.702       8.538       8.437       8.360       8.275    
        8.203       8.148       8.090       7.981       7.838       7.662       7.484       7.357       7.178       6.998    
        6.738       6.371       5.918       5.458       5.055       4.646       4.266       3.878       3.363       2.890    
        2.520       2.095       1.716       1.444       1.226       1.050      0.8203      0.5502      0.2495       0.000    
   4    10.00       9.944       9.884       9.816       9.739       9.650       9.543       9.458       9.391       9.316    
        9.251       9.203       9.140       9.040       8.903       8.706       8.535       8.441       8.354       8.278    
        8.200       8.131       8.058       7.943       7.801       7.643       7.480       7.323       7.163       6.957    
        6.629       6.140       5.658       5.309       4.978       4.558       4.102       3.647       3.236       2.883    
        2.538       2.147       1.793       1.548       1.304       1.081      0.7965      0.4945      0.2369       0.000    
   5    10.00       9.940       9.879       9.803       9.725       9.642       9.546       9.473       9.403       9.333    
        9.277       9.229       9.146       9.029       8.878       8.698       8.553       8.450       8.363       8.260    
        8.166       8.091       8.002       7.890       7.763       7.599       7.437       7.292       7.132       6.877    
        6.402       5.849       5.463       5.193       4.865       4.414       3.944       3.534       3.231       2.913    
        2.578       2.221       1.873       1.646       1.385       1.063      0.7245      0.4406      0.2216       0.000    
   6    10.00       9.932       9.859       9.795       9.725       9.635       9.553       9.490       9.417       9.351    
        9.297       9.240       9.135       9.002       8.869       8.718       8.572       8.453       8.337       8.217    
        8.122       8.034       7.956       7.855       7.692       7.530       7.400       7.252       7.027       6.638    
        6.110       5.608       5.287       5.056       4.759       4.313       3.850       3.511       3.256       2.972    
        2.670       2.358       2.004       1.702       1.356       1.002      0.6390      0.3797      0.2090       0.000    
   7    10.00       9.919       9.848       9.789       9.716       9.640       9.568       9.508       9.440       9.375    
        9.309       9.221       9.106       8.981       8.855       8.736       8.582       8.418       8.284       8.167    
        8.067       7.982       7.915       7.786       7.619       7.483       7.350       7.147       6.777       6.276    
        5.775       5.372       5.159       4.955       4.610       4.191       3.883       3.558       3.285       3.103    
        2.820       2.489       2.073       1.642       1.255      0.8683      0.5494      0.3819      0.1966       0.000    
   8    10.00       9.918       9.854       9.787       9.713       9.646       9.583       9.522       9.460       9.397    
        9.310       9.197       9.083       8.964       8.847       8.713       8.519       8.346       8.237       8.124    
        8.012       7.940       7.838       7.697       7.551       7.409       7.182       6.863       6.392       5.954    
        5.584       5.280       5.088       4.855       4.485       4.143       3.865       3.628       3.422       3.215    
        2.940       2.523       2.014       1.554       1.153      0.8112      0.5807      0.3735      0.1791       0.000    
   9    10.00       9.931       9.853       9.779       9.724       9.668       9.605       9.540       9.471       9.404    
        9.302       9.173       9.048       8.929       8.804       8.645       8.456       8.296       8.179       8.063    
        7.964       7.870       7.732       7.597       7.460       7.282       6.950       6.521       6.081       5.762    
        5.460       5.216       5.006       4.715       4.376       4.092       3.883       3.713       3.529       3.303    
        2.973       2.519       2.002       1.547       1.158      0.8277      0.5851      0.3762      0.1925       0.000    
  10    10.00       9.928       9.846       9.785       9.734       9.680       9.623       9.567       9.486       9.385    
        9.262       9.126       9.006       8.894       8.765       8.568       8.369       8.231       8.123       8.015    
        7.923       7.790       7.637       7.484       7.323       7.060       6.630       6.187       5.818       5.563    
        5.372       5.169       4.912       4.619       4.309       4.076       3.923       3.775       3.577       3.316    
        2.938       2.469       1.998       1.612       1.250      0.9088      0.6025      0.3992      0.2146       0.000    
  11    10.00       9.912       9.846       9.796       9.745       9.699       9.646       9.567       9.456       9.342    
        9.218       9.085       8.974       8.838       8.660       8.472       8.309       8.187       8.088       7.979    
        7.839       7.669       7.459       7.285       7.010       6.640       6.276       5.954       5.650       5.465    
        5.319       5.055       4.779       4.538       4.304       4.131       3.974       3.786       3.541       3.225    
        2.870       2.510       2.062       1.683       1.340       1.003      0.6755      0.3915      0.1643       0.000    
  12    10.00       9.915       9.853       9.800       9.757       9.709       9.647       9.536       9.406       9.297    
        9.181       9.042       8.906       8.743       8.587       8.414       8.256       8.152       8.041       7.888    
        7.652       7.396       7.149       6.903       6.534       6.257       6.057       5.742       5.494       5.362    
        5.197       4.948       4.725       4.505       4.343       4.178       3.982       3.752       3.454       3.140    
        2.843       2.520       2.089       1.718       1.397       1.045      0.7087      0.3682      0.1222       0.000    
  13    10.00       9.931       9.872       9.816       9.765       9.707       9.608       9.479       9.356       9.245    
        9.114       8.977       8.835       8.666       8.494       8.331       8.216       8.084       7.938       7.629    
        7.271       7.001       6.729       6.401       6.121       5.992       5.765       5.490       5.359       5.239    
        5.046       4.836       4.662       4.505       4.368       4.214       3.981       3.673       3.391       3.098    
        2.817       2.485       2.023       1.680       1.405       1.032      0.6491      0.3166      9.6919E-02   0.000    
  14    10.00       9.946       9.896       9.836       9.765       9.668       9.538       9.409       9.298       9.174    
        9.039       8.912       8.751       8.572       8.419       8.278       8.102       7.928       7.633       7.174    
        6.832       6.572       6.210       5.957       5.830       5.715       5.492       5.325       5.197       5.071    
        4.906       4.762       4.642       4.512       4.365       4.216       3.952       3.620       3.331       3.031    
        2.747       2.335       1.898       1.631       1.319      0.9843      0.6470      0.2918      8.3123E-02   0.000    
  15    10.00       9.957       9.904       9.837       9.750       9.608       9.450       9.337       9.233       9.111    
        9.005       8.872       8.665       8.461       8.319       8.096       7.872       7.690       7.237       6.739    
        6.432       6.086       5.785       5.694       5.631       5.484       5.296       5.141       5.043       4.948    
        4.827       4.725       4.630       4.515       4.373       4.193       3.884       3.518       3.217       2.948    
        2.645       2.233       1.893       1.561       1.192      0.8982      0.5762      0.2666      9.0176E-02   0.000    
  16    10.00       9.964       9.907       9.823       9.695       9.526       9.384       9.294       9.202       9.079    
        8.951       8.753       8.493       8.296       8.092       7.834       7.685       7.314       6.681       6.249    
        5.984       5.692       5.589       5.539       5.419       5.228       5.083       5.010       4.969       4.888    
        4.788       4.697       4.616       4.500       4.328       4.080       3.728       3.418       3.186       2.909    
        2.560       2.158       1.793       1.433       1.117      0.7929      0.5152      0.2683      9.5793E-02   0.000    
  17    10.00       9.958       9.889       9.775       9.630       9.454       9.329       9.250       9.139       9.008    
        8.776       8.500       8.282       8.082       7.818       7.563       7.248       6.657       6.139       5.875    
        5.670       5.521       5.450       5.326       5.139       5.006       4.966       4.948       4.907       4.828    
        4.741       4.663       4.577       4.457       4.204       3.883       3.615       3.420       3.200       2.866    
        2.428       2.037       1.700       1.364      0.9985      0.6597      0.4380      0.2429      0.1012       0.000    
  18    10.00       9.941       9.850       9.718       9.526       9.377       9.290       9.171       9.035       8.836    
        8.541       8.312       8.109       7.803       7.460       7.109       6.672       6.165       5.853       5.655    
        5.502       5.373       5.258       5.090       4.963       4.925       4.909       4.889       4.833       4.758    
        4.686       4.607       4.498       4.311       4.052       3.799       3.596       3.438       3.161       2.750    
        2.331       1.926       1.588       1.273      0.9239      0.6070      0.3696      0.2027      9.4622E-02   0.000    
  19    10.00       9.920       9.815       9.622       9.431       9.344       9.231       9.077       8.911       8.684    
        8.424       8.197       7.870       7.434       7.080       6.739       6.275       5.869       5.674       5.546    
        5.386       5.223       5.092       4.953       4.887       4.870       4.848       4.805       4.735       4.670    
        4.600       4.513       4.370       4.183       3.979       3.770       3.601       3.399       3.004       2.601    
        2.270       1.859       1.495       1.189      0.8470      0.5460      0.3321      0.1921      9.6222E-02   0.000    
  20    10.00       9.896       9.735       9.534       9.393       9.293       9.168       9.002       8.804       8.594    
        8.322       7.985       7.542       7.145       6.834       6.429       6.012       5.808       5.645       5.470    
        5.296       5.125       4.965       4.864       4.819       4.783       4.731       4.685       4.617       4.557    
        4.489       4.402       4.261       4.104       3.926       3.754       3.576       3.260       2.850       2.512    
        2.147       1.749       1.427       1.122      0.8042      0.4902      0.2884      0.1938      9.7909E-02   0.000    
  21    10.00       9.836       9.670       9.505       9.357       9.244       9.107       8.894       8.693       8.490    
        8.136       7.712       7.299       6.976       6.644       6.259       5.964       5.785       5.599       5.408    
        5.196       5.001       4.861       4.757       4.680       4.611       4.569       4.527       4.455       4.410    
        4.364       4.273       4.158       4.027       3.873       3.710       3.461       3.145       2.795       2.396    
        2.031       1.658       1.381       1.102      0.6990      0.4144      0.2955      0.2157      0.1037       0.000    
  22    10.00       9.811       9.615       9.455       9.329       9.194       8.991       8.779       8.601       8.332    
        7.960       7.519       7.165       6.897       6.535       6.180       5.932       5.749       5.564       5.334    
        5.090       4.893       4.710       4.549       4.445       4.395       4.361       4.303       4.280       4.254    
        4.221       4.154       4.070       3.953       3.815       3.659       3.401       3.094       2.683       2.291    
        1.978       1.641       1.334      0.9200      0.5769      0.4158      0.3129      0.2083      8.2809E-02   0.000    
  23    10.00       9.769       9.577       9.444       9.306       9.104       8.876       8.711       8.486       8.207    
        7.830       7.439       7.166       6.827       6.437       6.129       5.919       5.752       5.542       5.267    
        5.006       4.774       4.532       4.244       3.988       3.937       4.010       4.044       4.093       4.110    
        4.099       4.059       3.989       3.897       3.766       3.605       3.368       2.987       2.558       2.238    
        1.939       1.556       1.114      0.7545      0.5639      0.4274      0.3131      0.1989      9.2668E-02   0.000    
  24    10.00       9.736       9.598       9.444       9.250       9.028       8.849       8.669       8.449       8.128    
        7.782       7.478       7.177       6.769       6.357       6.114       5.940       5.766       5.513       5.235    
        4.976       4.709       4.338       3.676       2.680       3.010       3.463       3.750       3.904       3.969    
        3.991       3.970       3.926       3.833       3.707       3.545       3.252       2.851       2.491       2.152    
        1.789       1.384      0.9918      0.7223      0.5628      0.4261      0.3067      0.2325      0.1280       0.000    
  25    10.00       9.770       9.624       9.439       9.235       9.036       8.853       8.682       8.413       8.094    
        7.804       7.511       7.143       6.697       6.377       6.154       5.961       5.755       5.519       5.261    
        4.981       4.715       4.038       2.630     -0.5618       2.021       2.997       3.487       3.749       3.871    
        3.909       3.905       3.861       3.754       3.623       3.425       3.122       2.740       2.415       2.049    
        1.631       1.249      0.9286      0.7178      0.5872      0.4594      0.3359      0.2476      0.1617       0.000    
  26    10.00       9.804       9.666       9.467       9.257       9.083       8.893       8.678       8.403       8.155    
        7.904       7.514       7.051       6.671       6.438       6.237       6.006       5.739       5.489       5.268    
        5.052       4.759       4.132       3.108       2.032       2.552       3.116       3.473       3.695       3.827    
        3.865       3.858       3.798       3.695       3.569       3.356       2.962       2.608       2.333       1.886    
        1.431       1.113      0.9237      0.7808      0.6413      0.4991      0.3703      0.2714      0.1621       0.000    
  27    10.00       9.847       9.680       9.511       9.324       9.123       8.936       8.728       8.482       8.244    
        7.908       7.451       7.050       6.740       6.534       6.308       6.005       5.712       5.508       5.331    
        5.149       4.846       4.375       3.807       3.202       3.217       3.415       3.602       3.746       3.828    
        3.849       3.834       3.775       3.669       3.498       3.165       2.794       2.513       2.087       1.644    
        1.314       1.104      0.9645      0.8433      0.7146      0.5504      0.3966      0.2969      0.1995       0.000    
  28    10.00       9.862       9.721       9.560       9.390       9.201       9.007       8.798       8.566       8.292    
        7.883       7.468       7.120       6.822       6.608       6.380       6.120       5.831       5.558       5.382    
        5.219       5.001       4.685       4.258       3.872       3.698       3.708       3.794       3.833       3.863    
        3.860       3.830       3.760       3.606       3.353       3.003       2.681       2.296       1.871       1.572    
        1.327       1.152       1.013      0.8924      0.7599      0.6027      0.4501      0.3382      0.2062       0.000    
  29    10.00       9.869       9.735       9.615       9.453       9.280       9.094       8.884       8.639       8.274    
        7.873       7.510       7.181       6.934       6.688       6.441       6.203       5.971       5.705       5.475    
        5.299       5.114       4.896       4.632       4.280       4.092       4.020       3.990       3.974       3.940    
        3.894       3.828       3.735       3.529       3.217       2.893       2.549       2.155       1.826       1.604    
        1.401       1.207       1.055      0.9371      0.8078      0.6466      0.4890      0.3582      0.2088       0.000    
  30    10.00       9.881       9.771       9.665       9.525       9.366       9.201       8.968       8.664       8.293    
        7.881       7.514       7.238       6.996       6.754       6.514       6.315       6.114       5.873       5.626    
        5.414       5.243       5.053       4.862       4.638       4.434       4.351       4.221       4.149       4.049    
        3.938       3.824       3.680       3.459       3.191       2.874       2.513       2.142       1.895       1.687    
        1.456       1.264       1.118      0.9767      0.8310      0.6879      0.5223      0.3741      0.2261       0.000    
  31    10.00       9.901       9.807       9.709       9.607       9.483       9.303       9.031       8.682       8.297    
        7.901       7.559       7.298       7.051       6.835       6.613       6.403       6.249       6.017       5.778    
        5.574       5.396       5.229       5.055       4.914       4.752       4.591       4.444       4.296       4.152    
        3.984       3.816       3.661       3.471       3.199       2.862       2.512       2.198       1.992       1.806    
        1.565       1.344       1.171       1.022      0.8765      0.7244      0.5577      0.4007      0.2206       0.000    
  32    10.00       9.917       9.846       9.760       9.662       9.551       9.374       9.069       8.744       8.393    
        7.975       7.620       7.360       7.128       6.912       6.726       6.539       6.343       6.156       5.927    
        5.713       5.519       5.357       5.198       5.067       4.952       4.774       4.606       4.418       4.221    
        4.034       3.855       3.673       3.483       3.223       2.914       2.616       2.337       2.116       1.906    
        1.683       1.450       1.265       1.089      0.9215      0.7828      0.6116      0.4032      0.2005       0.000    
  33    10.00       9.929       9.871       9.802       9.708       9.582       9.360       9.068       8.795       8.474    
        8.069       7.718       7.450       7.198       7.000       6.838       6.672       6.478       6.268       6.061    
        5.836       5.629       5.440       5.283       5.176       5.062       4.899       4.700       4.507       4.313    
        4.122       3.946       3.755       3.506       3.256       2.973       2.716       2.490       2.260       2.031    
        1.822       1.600       1.395       1.210       1.022      0.8559      0.6628      0.4156      0.1959       0.000    
  34    10.00       9.937       9.898       9.839       9.723       9.553       9.342       9.126       8.847       8.500    
        8.146       7.806       7.522       7.274       7.092       6.963       6.787       6.592       6.366       6.171    
        5.968       5.725       5.536       5.389       5.281       5.154       4.971       4.791       4.587       4.377    
        4.216       4.048       3.878       3.630       3.363       3.098       2.861       2.658       2.420       2.187    
        1.983       1.778       1.560       1.369       1.168      0.9718      0.7236      0.4655      0.2454       0.000    
  35    10.00       9.948       9.904       9.830       9.690       9.512       9.359       9.176       8.923       8.552    
        8.178       7.867       7.585       7.367       7.208       7.062       6.883       6.670       6.454       6.238    
        6.058       5.845       5.652       5.514       5.398       5.272       5.071       4.851       4.637       4.438    
        4.313       4.160       3.974       3.784       3.549       3.263       3.018       2.850       2.604       2.335    
        2.142       1.935       1.727       1.539       1.312       1.092      0.8402      0.5611      0.2804       0.000    
  36    10.00       9.945       9.884       9.802       9.664       9.496       9.359       9.192       8.941       8.600    
        8.213       7.880       7.667       7.488       7.338       7.161       6.948       6.743       6.519       6.264    
        6.074       5.907       5.740       5.620       5.504       5.354       5.149       4.918       4.701       4.508    
        4.378       4.250       4.071       3.887       3.684       3.423       3.170       2.979       2.761       2.468    
        2.249       2.041       1.828       1.671       1.453       1.207      0.9538      0.6610      0.3363       0.000    
  37    10.00       9.930       9.863       9.775       9.636       9.484       9.332       9.172       8.945       8.581    
        8.194       7.918       7.781       7.612       7.417       7.244       7.008       6.765       6.503       6.255    
        6.096       5.963       5.807       5.687       5.553       5.383       5.192       4.963       4.763       4.605    
        4.458       4.313       4.127       3.963       3.750       3.499       3.296       3.109       2.864       2.574    
        2.311       2.106       1.934       1.758       1.550       1.321       1.077      0.7479      0.4053       0.000    
  38    10.00       9.923       9.837       9.745       9.618       9.471       9.304       9.139       8.901       8.567    
        8.270       8.044       7.869       7.718       7.505       7.249       6.989       6.712       6.437       6.268    
        6.142       5.988       5.848       5.739       5.603       5.408       5.182       4.971       4.842       4.708    
        4.547       4.379       4.196       4.026       3.817       3.580       3.395       3.205       2.914       2.609    
        2.380       2.188       2.012       1.835       1.649       1.426       1.174      0.8571      0.4448       0.000    
  39    10.00       9.903       9.818       9.727       9.603       9.440       9.263       9.091       8.875       8.606    
        8.374       8.205       8.011       7.802       7.509       7.188       6.875       6.584       6.413       6.296    
        6.139       5.979       5.875       5.776       5.652       5.431       5.195       5.038       4.918       4.781    
        4.611       4.446       4.259       4.075       3.894       3.694       3.480       3.258       2.957       2.654    
        2.412       2.219       2.082       1.940       1.736       1.509       1.254      0.9094      0.4455       0.000    
  40    10.00       9.888       9.806       9.715       9.592       9.424       9.242       9.068       8.885       8.662    
        8.471       8.328       8.098       7.779       7.419       7.064       6.747       6.542       6.421       6.292    
        6.123       5.982       5.885       5.777       5.633       5.458       5.287       5.122       4.979       4.851    
        4.694       4.508       4.315       4.138       3.968       3.765       3.534       3.309       2.981       2.649    
        2.429       2.267       2.123       2.001       1.795       1.542       1.308      0.9456      0.4670       0.000    
  41    10.00       9.897       9.801       9.702       9.566       9.415       9.256       9.101       8.926       8.728    
        8.548       8.379       8.084       7.689       7.293       6.970       6.716       6.537       6.415       6.271    
        6.103       5.980       5.880       5.765       5.634       5.501       5.370       5.213       5.042       4.894    
        4.752       4.572       4.375       4.212       4.033       3.833       3.596       3.282       2.918       2.662    
        2.481       2.312       2.179       2.024       1.807       1.556       1.349       1.004      0.5143       0.000    
  42    10.00       9.901       9.795       9.704       9.587       9.445       9.288       9.116       8.961       8.810    
        8.601       8.311       7.945       7.541       7.185       6.933       6.712       6.541       6.402       6.232    
        6.077       5.965       5.865       5.779       5.663       5.561       5.439       5.261       5.080       4.946    
        4.816       4.622       4.409       4.255       4.101       3.877       3.573       3.198       2.872       2.675    
        2.531       2.386       2.222       2.021       1.795       1.593       1.383       1.046      0.5382       0.000    
  43    10.00       9.903       9.806       9.713       9.621       9.496       9.340       9.172       9.005       8.795    
        8.506       8.176       7.803       7.413       7.133       6.921       6.713       6.537       6.371       6.204    
        6.056       5.952       5.874       5.805       5.703       5.590       5.474       5.301       5.137       5.025    
        4.861       4.646       4.445       4.293       4.116       3.843       3.486       3.123       2.895       2.739    
        2.586       2.429       2.229       2.012       1.805       1.609       1.421       1.043      0.4699       0.000    
  44    10.00       9.897       9.809       9.729       9.628       9.534       9.402       9.200       8.980       8.697    
        8.406       8.059       7.651       7.366       7.147       6.915       6.688       6.492       6.313       6.163    
        6.056       5.969       5.894       5.822       5.734       5.620       5.483       5.346       5.217       5.075    
        4.918       4.724       4.497       4.281       4.075       3.796       3.423       3.107       2.925       2.773    
        2.626       2.454       2.252       2.058       1.842       1.625       1.379      0.8933      0.3949       0.000    
  45    10.00       9.898       9.825       9.733       9.639       9.554       9.366       9.140       8.884       8.606    
        8.361       7.946       7.566       7.352       7.132       6.879       6.626       6.425       6.266       6.156    
        6.078       6.000       5.921       5.835       5.740       5.637       5.521       5.403       5.299       5.153    
        4.965       4.757       4.527       4.267       4.032       3.729       3.377       3.128       2.977       2.825    
        2.635       2.435       2.259       2.083       1.894       1.660       1.244      0.7493      0.3796       0.000    
  46    10.00       9.916       9.838       9.741       9.637       9.481       9.285       9.098       8.865       8.591    
        8.241       7.860       7.554       7.288       7.063       6.815       6.562       6.405       6.284       6.182    
        6.109       6.037       5.944       5.841       5.747       5.655       5.560       5.455       5.350       5.218    
        5.043       4.825       4.570       4.276       3.948       3.622       3.365       3.194       3.025       2.851    
        2.631       2.423       2.247       2.106       1.903       1.577       1.116      0.7063      0.3589       0.000    
  47    10.00       9.934       9.863       9.762       9.584       9.395       9.227       9.068       8.860       8.520    
        8.142       7.788       7.494       7.270       7.029       6.754       6.536       6.396       6.300       6.216    
        6.138       6.055       5.963       5.862       5.768       5.688       5.603       5.499       5.379       5.247    
        5.093       4.901       4.572       4.184       3.875       3.633       3.408       3.261       3.107       2.864    
        2.602       2.384       2.219       2.104       1.850       1.459       1.037      0.6802      0.3491       0.000    
  48    10.00       9.942       9.868       9.717       9.537       9.380       9.201       9.041       8.819       8.462    
        8.050       7.729       7.491       7.224       6.944       6.698       6.533       6.396       6.304       6.242    
        6.164       6.065       5.964       5.875       5.800       5.732       5.651       5.536       5.393       5.241    
        5.081       4.862       4.523       4.204       3.932       3.691       3.481       3.315       3.116       2.826    
        2.548       2.372       2.234       2.019       1.679       1.329      0.9908      0.6854      0.3688       0.000    
  49    10.00       9.940       9.833       9.698       9.551       9.369       9.189       9.009       8.735       8.357    
        8.002       7.702       7.414       7.162       6.946       6.714       6.501       6.377       6.317       6.256    
        6.184       6.072       5.959       5.885       5.823       5.770       5.679       5.541       5.380       5.234    
        5.067       4.799       4.511       4.297       4.048       3.766       3.512       3.311       3.082       2.772    
        2.548       2.393       2.188       1.863       1.561       1.275      0.9799      0.6856      0.3677       0.000    
  50    10.00       9.932       9.821       9.683       9.550       9.381       9.179       8.955       8.666       8.367    
        7.996       7.620       7.354       7.152       6.970       6.708       6.472       6.380       6.325       6.265    
        6.192       6.077       5.962       5.890       5.838       5.788       5.686       5.528       5.365       5.226    
        5.054       4.778       4.555       4.363       4.104       3.824       3.558       3.283       2.969       2.709    
        2.593       2.418       2.101       1.775       1.549       1.273      0.9938      0.6717      0.2995       0.000    

 HEAD WILL BE SAVED ON UNIT   51 AT END OF TIME STEP  99, STRESS PERIOD    2

 DRAWDOWN WILL BE SAVED ON UNIT   52 AT END OF TIME STEP  99, STRESS PERIOD    2
1
  VOLUMETRIC BUDGET FOR ENTIRE MODEL AT END OF TIME STEP 99 IN STRESS PERIOD   2
  ------------------------------------------------------------------------------

     CUMULATIVE VOLUMES      L**3       RATES FOR THIS TIME STEP      L**3/T
     ------------------                 ------------------------

           IN:                                      IN:
           ---                                      ---
             STORAGE =       44739.8359               STORAGE =         362.0646
       CONSTANT HEAD =       63579.6875         CONSTANT HEAD =         703.6807
               WELLS =           0.0000                 WELLS =           0.0000

            TOTAL IN =      108319.5234              TOTAL IN =        1065.7452

          OUT:                                     OUT:
          ----                                     ----
             STORAGE =       9.4320E-03               STORAGE =           0.0000
       CONSTANT HEAD =       58819.5078         CONSTANT HEAD =         565.7445
               WELLS =       49500.0000                 WELLS =         500.0000

           TOTAL OUT =      108319.5156             TOTAL OUT =        1065.7445

            IN - OUT =       7.8125E-03              IN - OUT =       7.3242E-04

 PERCENT DISCREPANCY =           0.00     PERCENT DISCREPANCY =           0.00






          TIME SUMMARY AT END OF TIME STEP  99 IN STRESS PERIOD    2
                    SECONDS     MINUTES      HOURS       DAYS        YEARS
                    -----------------------------------------------------------
   TIME STEP LENGTH  86400.      1440.0      24.000      1.0000     2.73785E-03
 STRESS PERIOD TIME 8.55360E+06 1.42560E+05  2376.0      99.000     0.27105    
         TOTAL TIME 8.64000E+06 1.44000E+05  2400.0      100.00     0.27379    
1
 
 SOLVING FOR HEAD 

 OUTPUT CONTROL FOR STRESS PERIOD    2   TIME STEP 100
    SAVE HEAD FOR ALL LAYERS
    SAVE DRAWDOWN FOR ALL LAYERS
    SAVE BUDGET
    PRINT HEAD FOR ALL LAYERS
    PRINT BUDGET
 UBDSV1 SAVING "         STORAGE" ON UNIT  53 AT TIME STEP100, STRESS PERIOD   2
 UBDSV2 SAVING "   CONSTANT HEAD" ON UNIT  53 AT TIME STEP100, STRESS PERIOD   2
 UBDSV1 SAVING "FLOW RIGHT FACE " ON UNIT  53 AT TIME STEP100, STRESS PERIOD   2
 UBDSV1 SAVING "FLOW FRONT FACE " ON UNIT  53 AT TIME STEP100, STRESS PERIOD   2
1
              HEAD IN LAYER   1 AT END OF TIME STEP 100 IN STRESS PERIOD    2
  ---------------------------------------------------------------------------

            1           2           3           4           5           6           7           8           9          10
           11          12          13          14          15          16          17          18          19          20
           21          22          23          24          25          26          27          28          29          30
           31          32          33          34          35          36          37          38          39          40
           41          42          43          44          45          46          47          48          49          50
 ........................................................................................................................
   1    10.00       9.952       9.884       9.806       9.730       9.644       9.563       9.483       9.382       9.283    
        9.206       9.132       9.056       8.982       8.862       8.719       8.559       8.433       8.369       8.294    
        8.206       8.136       8.068       7.990       7.888       7.687       7.461       7.304       7.152       7.010    
        6.827       6.533       6.158       5.742       5.312       4.857       4.406       4.033       3.547       3.018    
        2.586       2.174       1.717       1.335       1.101      0.9024      0.7456      0.6320      0.4243       0.000    
   2    10.00       9.951       9.889       9.810       9.733       9.657       9.577       9.471       9.361       9.280    
        9.214       9.150       9.086       8.994       8.858       8.707       8.557       8.433       8.366       8.283    
        8.194       8.141       8.086       8.005       7.874       7.677       7.472       7.311       7.158       7.019    
        6.814       6.506       6.111       5.637       5.179       4.739       4.349       3.989       3.494       2.982    
        2.549       2.087       1.671       1.372       1.152      0.9820      0.7879      0.6151      0.3432       0.000    
   3    10.00       9.944       9.882       9.813       9.745       9.668       9.564       9.453       9.375       9.302    
        9.228       9.170       9.113       9.025       8.885       8.699       8.535       8.434       8.356       8.271    
        8.199       8.144       8.087       7.978       7.835       7.658       7.480       7.353       7.174       6.993    
        6.734       6.367       5.914       5.454       5.050       4.642       4.263       3.874       3.359       2.887    
        2.517       2.093       1.715       1.442       1.225       1.049      0.8194      0.5495      0.2492       0.000    
   4    10.00       9.944       9.883       9.816       9.739       9.649       9.542       9.457       9.390       9.315    
        9.250       9.201       9.138       9.038       8.901       8.703       8.532       8.438       8.351       8.275    
        8.197       8.128       8.055       7.939       7.797       7.639       7.476       7.319       7.158       6.953    
        6.625       6.136       5.653       5.304       4.973       4.554       4.098       3.643       3.232       2.880    
        2.535       2.145       1.791       1.546       1.303       1.080      0.7955      0.4939      0.2366       0.000    
   5    10.00       9.940       9.879       9.802       9.725       9.642       9.545       9.471       9.402       9.332    
        9.275       9.228       9.145       9.027       8.876       8.695       8.550       8.447       8.360       8.257    
        8.163       8.088       7.998       7.886       7.759       7.595       7.433       7.287       7.127       6.873    
        6.397       5.845       5.459       5.188       4.860       4.409       3.940       3.530       3.227       2.910    
        2.575       2.218       1.870       1.644       1.383       1.062      0.7236      0.4400      0.2213       0.000    
   6    10.00       9.932       9.859       9.795       9.724       9.634       9.552       9.489       9.416       9.349    
        9.296       9.238       9.133       9.000       8.867       8.716       8.569       8.450       8.334       8.214    
        8.119       8.030       7.952       7.851       7.688       7.526       7.396       7.247       7.023       6.633    
        6.105       5.602       5.282       5.051       4.754       4.308       3.846       3.507       3.252       2.968    
        2.667       2.355       2.002       1.700       1.354       1.001      0.6382      0.3792      0.2088       0.000    
   7    10.00       9.919       9.848       9.788       9.715       9.639       9.567       9.507       9.439       9.374    
        9.308       9.219       9.104       8.979       8.853       8.734       8.579       8.415       8.281       8.163    
        8.064       7.978       7.911       7.782       7.614       7.479       7.346       7.142       6.772       6.271    
        5.769       5.367       5.154       4.949       4.605       4.186       3.878       3.554       3.281       3.099    
        2.817       2.486       2.070       1.640       1.254      0.8672      0.5487      0.3814      0.1964       0.000    
   8    10.00       9.918       9.854       9.786       9.712       9.645       9.582       9.521       9.458       9.396    
        9.308       9.195       9.081       8.962       8.845       8.710       8.516       8.342       8.233       8.120    
        8.008       7.936       7.834       7.693       7.547       7.405       7.177       6.858       6.387       5.948    
        5.578       5.275       5.083       4.849       4.480       4.137       3.861       3.623       3.417       3.210    
        2.936       2.520       2.011       1.552       1.151      0.8101      0.5800      0.3730      0.1788       0.000    
   9    10.00       9.931       9.853       9.779       9.724       9.668       9.604       9.539       9.470       9.402    
        9.301       9.171       9.046       8.927       8.802       8.642       8.453       8.293       8.175       8.059    
        7.960       7.866       7.727       7.593       7.455       7.277       6.944       6.515       6.075       5.756    
        5.454       5.210       5.000       4.709       4.370       4.087       3.878       3.708       3.525       3.299    
        2.969       2.516       1.999       1.545       1.157      0.8266      0.5843      0.3758      0.1922       0.000    
  10    10.00       9.927       9.845       9.785       9.734       9.680       9.622       9.566       9.485       9.384    
        9.260       9.124       9.004       8.892       8.762       8.565       8.366       8.227       8.119       8.011    
        7.919       7.786       7.633       7.480       7.318       7.055       6.624       6.181       5.811       5.557    
        5.366       5.163       4.906       4.613       4.303       4.070       3.917       3.770       3.572       3.311    
        2.934       2.466       1.996       1.610       1.248      0.9075      0.6017      0.3986      0.2143       0.000    
  11    10.00       9.912       9.845       9.795       9.745       9.698       9.645       9.566       9.454       9.341    
        9.216       9.083       8.972       8.835       8.657       8.468       8.305       8.183       8.085       7.975    
        7.835       7.664       7.455       7.280       7.004       6.634       6.270       5.948       5.643       5.459    
        5.312       5.049       4.772       4.532       4.298       4.125       3.969       3.781       3.536       3.220    
        2.866       2.507       2.059       1.681       1.338       1.001      0.6745      0.3909      0.1640       0.000    
  12    10.00       9.915       9.853       9.800       9.757       9.708       9.647       9.535       9.405       9.296    
        9.179       9.040       8.904       8.741       8.584       8.410       8.253       8.148       8.037       7.884    
        7.647       7.391       7.144       6.897       6.528       6.251       6.050       5.735       5.487       5.355    
        5.190       4.941       4.719       4.499       4.337       4.172       3.976       3.746       3.450       3.135    
        2.839       2.516       2.085       1.716       1.395       1.043      0.7077      0.3677      0.1220       0.000    
  13    10.00       9.931       9.872       9.816       9.765       9.706       9.607       9.478       9.355       9.243    
        9.112       8.975       8.833       8.663       8.490       8.327       8.212       8.080       7.934       7.625    
        7.265       6.995       6.722       6.394       6.114       5.985       5.758       5.482       5.352       5.231    
        5.038       4.829       4.655       4.498       4.361       4.207       3.975       3.668       3.386       3.093    
        2.813       2.481       2.020       1.678       1.403       1.031      0.6481      0.3161      9.6771E-02   0.000    
  14    10.00       9.946       9.896       9.835       9.764       9.667       9.537       9.407       9.296       9.172    
        9.037       8.909       8.748       8.569       8.416       8.275       8.098       7.924       7.629       7.169    
        6.825       6.565       6.203       5.949       5.823       5.708       5.484       5.317       5.189       5.063    
        4.898       4.755       4.635       4.505       4.358       4.210       3.946       3.614       3.326       3.026    
        2.742       2.331       1.895       1.629       1.317      0.9827      0.6460      0.2914      8.2990E-02   0.000    
  15    10.00       9.957       9.904       9.836       9.750       9.607       9.449       9.335       9.231       9.108    
        9.002       8.870       8.661       8.457       8.315       8.092       7.867       7.685       7.232       6.732    
        6.425       6.079       5.777       5.686       5.623       5.476       5.288       5.133       5.035       4.940    
        4.819       4.717       4.622       4.508       4.366       4.186       3.878       3.512       3.212       2.943    
        2.641       2.230       1.890       1.558       1.190      0.8967      0.5752      0.2661      9.0026E-02   0.000    
  16    10.00       9.964       9.906       9.822       9.694       9.524       9.383       9.292       9.200       9.076    
        8.949       8.750       8.489       8.292       8.087       7.829       7.680       7.308       6.674       6.242    
        5.976       5.684       5.581       5.531       5.410       5.220       5.075       5.001       4.960       4.880    
        4.780       4.689       4.608       4.492       4.321       4.074       3.722       3.412       3.181       2.903    
        2.555       2.154       1.790       1.430       1.115      0.7916      0.5143      0.2678      9.5629E-02   0.000    
  17    10.00       9.958       9.888       9.775       9.629       9.453       9.328       9.248       9.137       9.005    
        8.773       8.496       8.278       8.077       7.813       7.557       7.242       6.650       6.131       5.867    
        5.662       5.513       5.442       5.318       5.131       4.997       4.957       4.939       4.899       4.819    
        4.733       4.655       4.569       4.449       4.196       3.876       3.609       3.414       3.194       2.861    
        2.424       2.034       1.697       1.361      0.9967      0.6585      0.4372      0.2425      0.1010       0.000    
  18    10.00       9.941       9.850       9.717       9.525       9.375       9.288       9.168       9.032       8.832    
        8.537       8.307       8.104       7.797       7.454       7.103       6.665       6.157       5.845       5.646    
        5.493       5.365       5.250       5.082       4.954       4.916       4.901       4.881       4.825       4.749    
        4.678       4.599       4.490       4.303       4.044       3.792       3.589       3.432       3.155       2.745    
        2.327       1.923       1.585       1.271      0.9223      0.6059      0.3689      0.2023      9.4453E-02   0.000    
  19    10.00       9.920       9.815       9.621       9.429       9.342       9.229       9.074       8.908       8.680    
        8.419       8.192       7.865       7.428       7.073       6.731       6.267       5.861       5.666       5.538    
        5.378       5.214       5.083       4.945       4.878       4.861       4.840       4.796       4.726       4.661    
        4.591       4.504       4.361       4.175       3.971       3.763       3.594       3.393       2.998       2.596    
        2.266       1.855       1.492       1.187      0.8454      0.5450      0.3314      0.1918      9.6049E-02   0.000    
  20    10.00       9.896       9.734       9.533       9.391       9.291       9.166       8.999       8.801       8.590    
        8.318       7.979       7.536       7.138       6.827       6.422       6.004       5.800       5.636       5.462    
        5.287       5.116       4.956       4.855       4.810       4.774       4.722       4.676       4.608       4.549    
        4.480       4.393       4.252       4.096       3.918       3.746       3.569       3.254       2.845       2.507    
        2.143       1.745       1.424       1.120      0.8027      0.4893      0.2878      0.1934      9.7732E-02   0.000    
  21    10.00       9.835       9.668       9.503       9.355       9.242       9.104       8.891       8.690       8.485    
        8.131       7.706       7.293       6.969       6.637       6.251       5.955       5.777       5.590       5.399    
        5.187       4.992       4.852       4.748       4.671       4.602       4.560       4.518       4.446       4.400    
        4.355       4.264       4.149       4.019       3.865       3.703       3.454       3.139       2.789       2.391    
        2.027       1.655       1.378       1.100      0.6977      0.4136      0.2950      0.2154      0.1035       0.000    
  22    10.00       9.810       9.614       9.453       9.327       9.191       8.988       8.776       8.597       8.327    
        7.954       7.512       7.158       6.890       6.527       6.172       5.924       5.741       5.555       5.325    
        5.081       4.884       4.701       4.540       4.436       4.386       4.352       4.294       4.271       4.244    
        4.212       4.145       4.061       3.944       3.807       3.651       3.394       3.087       2.677       2.287    
        1.974       1.638       1.331      0.9183      0.5758      0.4151      0.3124      0.2079      8.2664E-02   0.000    
  23    10.00       9.768       9.576       9.442       9.304       9.101       8.873       8.707       8.482       8.202    
        7.824       7.432       7.159       6.819       6.429       6.121       5.911       5.743       5.534       5.258    
        4.997       4.765       4.522       4.235       3.979       3.928       4.000       4.034       4.083       4.101    
        4.089       4.049       3.980       3.888       3.758       3.597       3.361       2.980       2.552       2.233    
        1.935       1.553       1.112      0.7531      0.5629      0.4267      0.3126      0.1986      9.2510E-02   0.000    
  24    10.00       9.736       9.596       9.442       9.247       9.025       8.845       8.665       8.445       8.123    
        7.776       7.471       7.170       6.761       6.349       6.105       5.932       5.757       5.504       5.226    
        4.967       4.700       4.329       3.667       2.670       3.000       3.453       3.740       3.895       3.959    
        3.981       3.960       3.917       3.824       3.698       3.536       3.244       2.845       2.485       2.148    
        1.785       1.381      0.9900      0.7210      0.5618      0.4254      0.3062      0.2321      0.1278       0.000    
  25    10.00       9.770       9.623       9.437       9.232       9.033       8.849       8.678       8.409       8.089    
        7.798       7.504       7.136       6.689       6.369       6.146       5.953       5.746       5.511       5.252    
        4.972       4.706       4.028       2.620     -0.5723       2.011       2.987       3.477       3.739       3.861    
        3.900       3.895       3.852       3.745       3.614       3.417       3.115       2.734       2.409       2.045    
        1.628       1.247      0.9270      0.7166      0.5862      0.4586      0.3353      0.2472      0.1614       0.000    
  26    10.00       9.803       9.665       9.465       9.254       9.080       8.890       8.674       8.399       8.150    
        7.898       7.507       7.044       6.664       6.431       6.229       5.998       5.730       5.481       5.259    
        5.043       4.749       4.123       3.098       2.022       2.542       3.106       3.463       3.685       3.817    
        3.855       3.849       3.789       3.686       3.560       3.348       2.956       2.603       2.328       1.882    
        1.428       1.112      0.9222      0.7796      0.6402      0.4983      0.3697      0.2710      0.1618       0.000    
  27    10.00       9.847       9.680       9.510       9.322       9.121       8.933       8.724       8.478       8.239    
        7.903       7.444       7.043       6.733       6.526       6.300       5.997       5.703       5.499       5.322    
        5.141       4.837       4.366       3.798       3.192       3.207       3.405       3.592       3.736       3.818    
        3.840       3.824       3.766       3.660       3.490       3.158       2.788       2.508       2.083       1.641    
        1.312       1.102      0.9630      0.8420      0.7135      0.5495      0.3960      0.2964      0.1992       0.000    
  28    10.00       9.861       9.720       9.558       9.388       9.199       9.004       8.795       8.563       8.287    
        7.878       7.462       7.113       6.815       6.600       6.372       6.112       5.822       5.549       5.373    
        5.210       4.992       4.676       4.248       3.863       3.689       3.698       3.784       3.823       3.853    
        3.850       3.821       3.751       3.598       3.345       2.997       2.676       2.291       1.868       1.569    
        1.325       1.150       1.011      0.8911      0.7587      0.6018      0.4494      0.3377      0.2059       0.000    
  29    10.00       9.868       9.735       9.614       9.451       9.278       9.091       8.881       8.636       8.269    
        7.868       7.504       7.174       6.927       6.680       6.433       6.195       5.963       5.697       5.466    
        5.290       5.105       4.887       4.622       4.271       4.083       4.010       3.980       3.964       3.931    
        3.885       3.819       3.727       3.521       3.211       2.888       2.544       2.151       1.823       1.601    
        1.399       1.205       1.053      0.9357      0.8067      0.6456      0.4883      0.3576      0.2085       0.000    
  30    10.00       9.880       9.770       9.664       9.524       9.365       9.198       8.966       8.661       8.289    
        7.876       7.508       7.232       6.989       6.747       6.506       6.307       6.106       5.865       5.617    
        5.405       5.234       5.044       4.853       4.628       4.425       4.342       4.211       4.140       4.040    
        3.929       3.816       3.673       3.453       3.185       2.869       2.508       2.138       1.892       1.684    
        1.454       1.263       1.116      0.9753      0.8298      0.6869      0.5216      0.3736      0.2257       0.000    
  31    10.00       9.901       9.806       9.708       9.606       9.481       9.301       9.029       8.679       8.293    
        7.896       7.553       7.292       7.044       6.828       6.606       6.396       6.241       6.009       5.770    
        5.566       5.387       5.220       5.047       4.905       4.743       4.582       4.435       4.287       4.143    
        3.976       3.810       3.655       3.465       3.193       2.858       2.508       2.195       1.990       1.803    
        1.563       1.342       1.170       1.020      0.8753      0.7234      0.5569      0.4002      0.2203       0.000    
  32    10.00       9.917       9.845       9.760       9.661       9.549       9.372       9.067       8.740       8.389    
        7.970       7.615       7.354       7.121       6.905       6.719       6.531       6.336       6.148       5.919    
        5.704       5.510       5.348       5.190       5.058       4.944       4.766       4.598       4.410       4.213    
        4.027       3.848       3.668       3.477       3.218       2.910       2.613       2.333       2.113       1.903    
        1.681       1.448       1.264       1.087      0.9203      0.7818      0.6108      0.4027      0.2002       0.000    
  33    10.00       9.929       9.870       9.802       9.707       9.581       9.359       9.066       8.792       8.470    
        8.064       7.712       7.444       7.192       6.993       6.831       6.665       6.470       6.260       6.053    
        5.828       5.621       5.432       5.275       5.168       5.053       4.891       4.692       4.499       4.307    
        4.116       3.940       3.750       3.501       3.251       2.969       2.712       2.487       2.258       2.028    
        1.820       1.598       1.394       1.208       1.021      0.8549      0.6621      0.4152      0.1957       0.000    
  34    10.00       9.936       9.897       9.838       9.723       9.552       9.340       9.124       8.844       8.496    
        8.142       7.801       7.517       7.268       7.086       6.957       6.780       6.585       6.359       6.163    
        5.960       5.718       5.528       5.382       5.273       5.147       4.963       4.784       4.580       4.371    
        4.211       4.043       3.873       3.625       3.358       3.095       2.858       2.655       2.417       2.184    
        1.981       1.776       1.558       1.368       1.167      0.9708      0.7229      0.4650      0.2451       0.000    
  35    10.00       9.948       9.903       9.830       9.689       9.511       9.357       9.174       8.921       8.549    
        8.174       7.863       7.580       7.362       7.202       7.056       6.876       6.663       6.447       6.231    
        6.051       5.838       5.645       5.507       5.391       5.265       5.064       4.844       4.631       4.432    
        4.308       4.155       3.969       3.780       3.545       3.260       3.015       2.847       2.601       2.333    
        2.140       1.933       1.726       1.538       1.311       1.091      0.8395      0.5606      0.2801       0.000    
  36    10.00       9.945       9.884       9.802       9.663       9.495       9.358       9.191       8.939       8.596    
        8.210       7.876       7.662       7.482       7.332       7.156       6.942       6.737       6.512       6.258    
        6.067       5.901       5.733       5.614       5.497       5.347       5.142       4.913       4.696       4.503    
        4.373       4.246       4.067       3.884       3.681       3.420       3.167       2.977       2.759       2.466    
        2.247       2.039       1.827       1.670       1.451       1.206      0.9531      0.6606      0.3361       0.000    
  37    10.00       9.930       9.862       9.774       9.635       9.483       9.330       9.171       8.943       8.578    
        8.191       7.914       7.777       7.607       7.412       7.239       7.002       6.759       6.497       6.249    
        6.090       5.957       5.801       5.680       5.547       5.378       5.187       4.958       4.759       4.600    
        4.454       4.309       4.124       3.959       3.747       3.496       3.294       3.106       2.862       2.572    
        2.309       2.105       1.933       1.757       1.549       1.320       1.076      0.7474      0.4050       0.000    
  38    10.00       9.923       9.837       9.744       9.617       9.470       9.303       9.137       8.899       8.564    
        8.267       8.040       7.865       7.714       7.501       7.244       6.984       6.707       6.432       6.263    
        6.137       5.982       5.842       5.734       5.598       5.403       5.177       4.967       4.838       4.704    
        4.543       4.375       4.193       4.023       3.814       3.578       3.392       3.202       2.912       2.607    
        2.378       2.186       2.011       1.834       1.648       1.425       1.173      0.8565      0.4445       0.000    
  39    10.00       9.903       9.818       9.726       9.603       9.439       9.262       9.089       8.873       8.604    
        8.371       8.202       8.007       7.798       7.505       7.183       6.870       6.580       6.408       6.291    
        6.134       5.974       5.871       5.771       5.648       5.427       5.191       5.034       4.915       4.777    
        4.607       4.443       4.256       4.072       3.891       3.692       3.478       3.256       2.955       2.652    
        2.411       2.217       2.080       1.938       1.735       1.508       1.254      0.9088      0.4452       0.000    
  40    10.00       9.888       9.806       9.714       9.591       9.423       9.240       9.067       8.883       8.660    
        8.469       8.325       8.095       7.776       7.415       7.060       6.743       6.538       6.417       6.288    
        6.119       5.977       5.881       5.773       5.630       5.454       5.283       5.119       4.975       4.848    
        4.691       4.505       4.312       4.136       3.966       3.763       3.532       3.307       2.979       2.648    
        2.428       2.265       2.122       1.999       1.794       1.541       1.307      0.9450      0.4667       0.000    
  41    10.00       9.897       9.801       9.701       9.566       9.414       9.255       9.100       8.925       8.726    
        8.545       8.377       8.081       7.686       7.289       6.967       6.712       6.533       6.411       6.268    
        6.099       5.977       5.877       5.761       5.631       5.497       5.367       5.209       5.039       4.891    
        4.749       4.569       4.372       4.209       4.030       3.831       3.594       3.280       2.916       2.660    
        2.480       2.310       2.177       2.023       1.806       1.555       1.348       1.003      0.5140       0.000    
  42    10.00       9.901       9.795       9.703       9.586       9.444       9.287       9.115       8.960       8.808    
        8.599       8.308       7.943       7.538       7.182       6.930       6.708       6.538       6.399       6.229    
        6.074       5.961       5.862       5.775       5.659       5.558       5.436       5.258       5.077       4.943    
        4.813       4.619       4.406       4.253       4.099       3.875       3.571       3.196       2.871       2.674    
        2.530       2.385       2.220       2.020       1.794       1.592       1.382       1.045      0.5379       0.000    
  43    10.00       9.903       9.806       9.713       9.620       9.495       9.339       9.171       9.004       8.794    
        8.504       8.174       7.801       7.410       7.130       6.918       6.709       6.534       6.368       6.201    
        6.053       5.949       5.871       5.802       5.700       5.587       5.471       5.298       5.134       5.022    
        4.858       4.643       4.442       4.290       4.114       3.841       3.484       3.121       2.894       2.738    
        2.584       2.428       2.227       2.010       1.804       1.608       1.420       1.042      0.4696       0.000    
  44    10.00       9.897       9.809       9.729       9.627       9.533       9.401       9.199       8.979       8.695    
        8.404       8.057       7.649       7.364       7.145       6.912       6.685       6.489       6.310       6.160    
        6.053       5.966       5.891       5.819       5.731       5.617       5.480       5.343       5.214       5.072    
        4.915       4.721       4.494       4.279       4.072       3.794       3.421       3.106       2.923       2.772    
        2.625       2.452       2.251       2.057       1.841       1.624       1.378      0.8928      0.3947       0.000    
  45    10.00       9.897       9.825       9.733       9.638       9.554       9.366       9.139       8.883       8.604    
        8.359       7.944       7.564       7.350       7.130       6.877       6.623       6.422       6.264       6.153    
        6.075       5.997       5.918       5.832       5.737       5.634       5.518       5.401       5.296       5.151    
        4.962       4.754       4.525       4.265       4.029       3.727       3.376       3.126       2.976       2.824    
        2.633       2.434       2.257       2.082       1.893       1.659       1.243      0.7489      0.3794       0.000    
  46    10.00       9.916       9.838       9.741       9.637       9.480       9.284       9.097       8.863       8.590    
        8.239       7.858       7.552       7.285       7.061       6.812       6.559       6.402       6.282       6.179    
        6.106       6.034       5.941       5.838       5.744       5.652       5.557       5.452       5.347       5.215    
        5.040       4.823       4.567       4.274       3.946       3.620       3.363       3.192       3.024       2.849    
        2.630       2.422       2.246       2.105       1.902       1.576       1.116      0.7060      0.3587       0.000    
  47    10.00       9.934       9.863       9.762       9.583       9.394       9.226       9.067       8.858       8.518    
        8.140       7.786       7.492       7.268       7.027       6.751       6.533       6.393       6.298       6.213    
        6.135       6.052       5.960       5.859       5.765       5.685       5.600       5.496       5.376       5.245    
        5.090       4.898       4.570       4.182       3.873       3.631       3.406       3.259       3.105       2.863    
        2.601       2.383       2.218       2.103       1.849       1.459       1.036      0.6798      0.3490       0.000    
  48    10.00       9.942       9.868       9.717       9.536       9.380       9.200       9.040       8.818       8.460    
        8.048       7.727       7.489       7.222       6.942       6.695       6.530       6.393       6.302       6.239    
        6.162       6.062       5.961       5.872       5.797       5.729       5.648       5.533       5.391       5.238    
        5.079       4.859       4.521       4.201       3.930       3.689       3.479       3.313       3.114       2.824    
        2.547       2.371       2.233       2.018       1.678       1.329      0.9903      0.6851      0.3686       0.000    
  49    10.00       9.940       9.832       9.698       9.551       9.369       9.188       9.008       8.733       8.355    
        8.000       7.700       7.412       7.160       6.944       6.711       6.499       6.375       6.314       6.253    
        6.181       6.069       5.956       5.883       5.820       5.767       5.676       5.538       5.377       5.231    
        5.064       4.796       4.509       4.295       4.046       3.764       3.510       3.309       3.080       2.771    
        2.546       2.392       2.187       1.862       1.560       1.274      0.9794      0.6853      0.3675       0.000    
  50    10.00       9.932       9.821       9.683       9.550       9.380       9.179       8.954       8.664       8.365    
        7.995       7.618       7.352       7.150       6.968       6.705       6.470       6.377       6.323       6.262    
        6.190       6.074       5.959       5.887       5.835       5.785       5.683       5.525       5.362       5.223    
        5.052       4.775       4.553       4.361       4.102       3.822       3.556       3.282       2.968       2.707    
        2.592       2.417       2.100       1.774       1.549       1.272      0.9933      0.6714      0.2993       0.000    

 HEAD WILL BE SAVED ON UNIT   51 AT END OF TIME STEP 100, STRESS PERIOD    2

 DRAWDOWN WILL BE SAVED ON UNIT   52 AT END OF TIME STEP 100, STRESS PERIOD    2
1
  VOLUMETRIC BUDGET FOR ENTIRE MODEL AT END OF TIME STEP100 IN STRESS PERIOD   2
  ------------------------------------------------------------------------------

     CUMULATIVE VOLUMES      L**3       RATES FOR THIS TIME STEP      L**3/T
     ------------------                 ------------------------

           IN:                                      IN:
           ---                                      ---
             STORAGE =       45099.8359               STORAGE =         359.9990
       CONSTANT HEAD =       64284.7852         CONSTANT HEAD =         705.0977
               WELLS =           0.0000                 WELLS =           0.0000

            TOTAL IN =      109384.6250              TOTAL IN =        1065.0967

          OUT:                                     OUT:
          ----                                     ----
             STORAGE =       9.4320E-03               STORAGE =           0.0000
       CONSTANT HEAD =       59384.6055         CONSTANT HEAD =         565.0962
               WELLS =       50000.0000                 WELLS =         500.0000

           TOTAL OUT =      109384.6172             TOTAL OUT =        1065.0962

            IN - OUT =       7.8125E-03              IN - OUT =       4.8828E-04

 PERCENT DISCREPANCY =           0.00     PERCENT DISCREPANCY =           0.00






          TIME SUMMARY AT END OF TIME STEP 100 IN STRESS PERIOD    2
                    SECONDS     MINUTES      HOURS       DAYS        YEARS
                    -----------------------------------------------------------
   TIME STEP LENGTH  86400.      1440.0      24.000      1.0000     2.73785E-03
 STRESS PERIOD TIME 8.64000E+06 1.44000E+05  2400.0      100.00     0.27379    
         TOTAL TIME 8.72640E+06 1.45440E+05  2424.0      101.00     0.27652    
1
